@<TRIPOS>MOLECULE
*****
 32 31 0 0 0
SMALL
GASTEIGER

@<TRIPOS>ATOM
      1 C           3.1010    1.5494    0.0231 C.3     1  UNL1        0.0607
      2 C           2.6592    0.0785    0.1019 C.3     1  UNL1        0.0212
      3 C           1.1535    0.0346    0.3912 C.3     1  UNL1        0.0607
      4 C           3.0584   -0.7836   -1.1378 C.3     1  UNL1        0.1068
      5 H           2.6396   -1.7792   -0.9953 H       1  UNL1        0.0575
      6 N           2.4480   -0.2204   -2.3713 N.3     1  UNL1        0.1826
      7 S           2.5376   -1.0222   -3.8333 S.O2    1  UNL1        0.0272
      8 C           4.2364   -0.8820   -4.3604 C.3     1  UNL1        0.0705
      9 O           2.2503   -2.4198   -3.5916 O.2     1  UNL1        0.1585
     10 O           1.7477   -0.2348   -4.7535 O.2     1  UNL1        0.1585
     11 C           4.5963   -0.8059   -1.2621 C.2     1  UNL1        0.2340
     12 O           5.1703    0.2293   -1.6289 O.2     1  UNL1        0.2738
     13 N           5.3250   -1.9625   -1.0171 N.am    1  UNL1        0.3063
     14 C           4.7883   -3.3081   -0.8558 C.3     1  UNL1        0.0029
     15 C           6.7764   -1.9019   -1.1607 C.3     1  UNL1        0.0029
     16 H           2.6885    2.1283    0.8560 H       1  UNL1        0.0233
     17 H           2.7715    2.0344   -0.9000 H       1  UNL1        0.0233
     18 H           4.1884    1.6415    0.0906 H       1  UNL1        0.0233
     19 H           3.1616   -0.3549    0.9779 H       1  UNL1        0.0316
     20 H           0.5655    0.4250   -0.4453 H       1  UNL1        0.0233
     21 H           0.9172    0.6453    1.2716 H       1  UNL1        0.0233
     22 H           0.8212   -0.9855    0.6058 H       1  UNL1        0.0233
     23 H           2.5161    0.7894   -2.4852 H       1  UNL1        0.1485
     24 H           4.8972   -1.3678   -3.6496 H       1  UNL1        0.0479
     25 H           4.4864    0.1713   -4.4964 H       1  UNL1        0.0479
     26 H           4.3316   -1.4115   -5.3112 H       1  UNL1        0.0479
     27 H           3.7152   -3.3387   -0.6911 H       1  UNL1        0.0428
     28 H           5.2835   -3.7802   -0.0015 H       1  UNL1        0.0428
     29 H           5.0195   -3.8812   -1.7603 H       1  UNL1        0.0428
     30 H           7.1482   -0.8789   -1.2606 H       1  UNL1        0.0428
     31 H           7.0679   -2.4665   -2.0523 H       1  UNL1        0.0428
     32 H           7.2382   -2.3521   -0.2772 H       1  UNL1        0.0428
@<TRIPOS>BOND
     1     1     2    1
     2     2     3    1
     3     2     4    1
     4     4     5    1
     5     4     6    1
     6     6     7    1
     7     7     8    1
     8     7     9    2
     9     7    10    2
    10     4    11    1
    11    11    12    2
    12    11    13   am
    13    13    14    1
    14    13    15    1
    15     1    16    1
    16     1    17    1
    17     1    18    1
    18     2    19    1
    19     3    20    1
    20     3    21    1
    21     3    22    1
    22     6    23    1
    23     8    24    1
    24     8    25    1
    25     8    26    1
    26    14    27    1
    27    14    28    1
    28    14    29    1
    29    15    30    1
    30    15    31    1
    31    15    32    1
