@<TRIPOS>MOLECULE
MOL
   39    39     1     0     0
SMALL
No Charge or Current Charge


@<TRIPOS>ATOM
 1  C1  0.574000  1.048000  -0.450000  C.2  1  MOL  0.636107 
 2  C2  3.139000  -1.411000  0.142000  C.2  1  MOL  0.736937 
 3  C3  -4.030000  -0.507000  0.395000  C.3  1  MOL  -0.000522 
 4  C4  -3.030000  -1.566000  0.883000  C.3  1  MOL  -0.002704 
 5  C5  -3.309000  0.741000  -0.136000  C.3  1  MOL  -0.002704 
 6  C6  -2.011000  -1.919000  -0.215000  C.3  1  MOL  -0.059496 
 7  C7  -2.281000  0.380000  -1.222000  C.3  1  MOL  -0.059496 
 8  C8  -1.256000  -0.692000  -0.775000  C.3  1  MOL  -0.034908 
 9  C9  1.386000  3.332000  -0.486000  C.3  1  MOL  -0.071473 
 10  C10  0.266000  2.560000  1.555000  C.3  1  MOL  -0.089282 
 11  C11  1.689000  -1.813000  -0.276000  C.3  1  MOL  -0.051723 
 12  C12  -0.227000  -0.097000  0.213000  C.3  1  MOL  0.007824 
 13  N1  0.705000  2.232000  0.199000  N.am  1  MOL  -0.344286 
 14  N2  0.769000  -1.130000  0.705000  N.4  1  MOL  -0.006019 
 15  O1  4.064000  -1.890000  -0.531000  O.co2  1  MOL  -0.694776 
 16  O2  1.053000  0.847000  -1.573000  O.2  1  MOL  -0.560519 
 17  O3  3.184000  -0.619000  1.136000  O.co2  1  MOL  -0.715282 
 18  H1  -4.643000  -0.938000  -0.410000  H  1  MOL  0.016039 
 19  H2  -4.719000  -0.234000  1.204000  H  1  MOL  0.016039 
 20  H3  -2.514000  -1.195000  1.780000  H  1  MOL  0.003502 
 21  H4  -3.559000  -2.476000  1.192000  H  1  MOL  0.003502 
 22  H5  -4.035000  1.452000  -0.549000  H  1  MOL  0.003502 
 23  H6  -2.817000  1.262000  0.699000  H  1  MOL  0.003502 
 24  H7  -1.318000  -2.695000  0.137000  H  1  MOL  0.033780 
 25  H8  -2.547000  -2.375000  -1.058000  H  1  MOL  0.033780 
 26  H9  -2.817000  -0.030000  -2.089000  H  1  MOL  0.033780 
 27  H10  -1.766000  1.278000  -1.581000  H  1  MOL  0.033780 
 28  H11  -0.694000  -1.000000  -1.663000  H  1  MOL  0.071287 
 29  H12  0.783000  4.242000  -0.396000  H  1  MOL  0.087465 
 30  H13  1.516000  3.076000  -1.535000  H  1  MOL  0.084069 
 31  H14  2.366000  3.515000  -0.030000  H  1  MOL  0.088028 
 32  H15  1.087000  3.058000  2.080000  H  1  MOL  0.094118 
 33  H16  -0.003000  1.676000  2.130000  H  1  MOL  0.067267 
 34  H17  -0.592000  3.242000  1.529000  H  1  MOL  0.084095 
 35  H18  1.541000  -2.892000  -0.220000  H  1  MOL  0.058870 
 36  H19  1.481000  -1.460000  -1.283000  H  1  MOL  0.058870 
 37  H20  -0.735000  0.232000  1.116000  H  1  MOL  0.056222 
 38  H21  0.276000  -1.816000  1.279000  H  1  MOL  0.190413 
 39  H22  1.524000  -0.671000  1.312000  H  1  MOL  0.190413 
@<TRIPOS>BOND
     1     1    12 1   
     2     1    13 am  
     3     1    16 2   
     4     2    11 1   
     5     2    15 1   
     6     2    17 1   
     7     3     4 1   
     8     3     5 1   
     9     3    18 1   
    10     3    19 1   
    11     4     6 1   
    12     4    20 1   
    13     4    21 1   
    14     5     7 1   
    15     5    22 1   
    16     5    23 1   
    17     6     8 1   
    18     6    24 1   
    19     6    25 1   
    20     7     8 1   
    21     7    26 1   
    22     7    27 1   
    23     8    12 1   
    24     8    28 1   
    25     9    13 1   
    26     9    29 1   
    27     9    30 1   
    28     9    31 1   
    29    10    13 1   
    30    10    32 1   
    31    10    33 1   
    32    10    34 1   
    33    11    14 1   
    34    11    35 1   
    35    11    36 1   
    36    12    14 1   
    37    12    37 1   
    38    14    38 1   
    39    14    39 1   
@<TRIPOS>SUBSTRUCTURE
     1 MOL         1 TEMP              0 ****  ****    0 ROOT
