@<TRIPOS>MOLECULE
MOL
   39    39     1     0     0
SMALL
No Charge or Current Charge


@<TRIPOS>ATOM
      1 C1           0.5740     1.0480    -0.4500 C.2        1 MOL       0.000000
      2 C2           3.1390    -1.4110     0.1420 C.2        1 MOL       0.000000
      3 C3          -4.0300    -0.5070     0.3950 C.3        1 MOL       0.000000
      4 C4          -3.0300    -1.5660     0.8830 C.3        1 MOL       0.000000
      5 C5          -3.3090     0.7410    -0.1360 C.3        1 MOL       0.000000
      6 C6          -2.0110    -1.9190    -0.2150 C.3        1 MOL       0.000000
      7 C7          -2.2810     0.3800    -1.2220 C.3        1 MOL       0.000000
      8 C8          -1.2560    -0.6920    -0.7750 C.3        1 MOL       0.000000
      9 C9           1.3860     3.3320    -0.4860 C.3        1 MOL       0.000000
     10 C10          0.2660     2.5600     1.5550 C.3        1 MOL       0.000000
     11 C11          1.6890    -1.8130    -0.2760 C.3        1 MOL       0.000000
     12 C12         -0.2270    -0.0970     0.2130 C.3        1 MOL       0.000000
     13 N1           0.7050     2.2320     0.1990 N.am       1 MOL       0.000000
     14 N2           0.7690    -1.1300     0.7050 N.4        1 MOL       0.000000
     15 O1           4.0640    -1.8900    -0.5310 O.co2      1 MOL       0.000000
     16 O2           1.0530     0.8470    -1.5730 O.2        1 MOL       0.000000
     17 O3           3.1840    -0.6190     1.1360 O.co2      1 MOL       0.000000
     18 H1          -4.6430    -0.9380    -0.4100 H          1 MOL       0.000000
     19 H2          -4.7190    -0.2340     1.2040 H          1 MOL       0.000000
     20 H3          -2.5140    -1.1950     1.7800 H          1 MOL       0.000000
     21 H4          -3.5590    -2.4760     1.1920 H          1 MOL       0.000000
     22 H5          -4.0350     1.4520    -0.5490 H          1 MOL       0.000000
     23 H6          -2.8170     1.2620     0.6990 H          1 MOL       0.000000
     24 H7          -1.3180    -2.6950     0.1370 H          1 MOL       0.000000
     25 H8          -2.5470    -2.3750    -1.0580 H          1 MOL       0.000000
     26 H9          -2.8170    -0.0300    -2.0890 H          1 MOL       0.000000
     27 H10         -1.7660     1.2780    -1.5810 H          1 MOL       0.000000
     28 H11         -0.6940    -1.0000    -1.6630 H          1 MOL       0.000000
     29 H12          0.7830     4.2420    -0.3960 H          1 MOL       0.000000
     30 H13          1.5160     3.0760    -1.5350 H          1 MOL       0.000000
     31 H14          2.3660     3.5150    -0.0300 H          1 MOL       0.000000
     32 H15          1.0870     3.0580     2.0800 H          1 MOL       0.000000
     33 H16         -0.0030     1.6760     2.1300 H          1 MOL       0.000000
     34 H17         -0.5920     3.2420     1.5290 H          1 MOL       0.000000
     35 H18          1.5410    -2.8920    -0.2200 H          1 MOL       0.000000
     36 H19          1.4810    -1.4600    -1.2830 H          1 MOL       0.000000
     37 H20         -0.7350     0.2320     1.1160 H          1 MOL       0.000000
     38 H21          0.2760    -1.8160     1.2790 H          1 MOL       0.000000
     39 H22          1.5240    -0.6710     1.3120 H          1 MOL       0.000000
@<TRIPOS>BOND
     1     1    12 1   
     2     1    13 am  
     3     1    16 2   
     4     2    11 1   
     5     2    15 1   
     6     2    17 1   
     7     3     4 1   
     8     3     5 1   
     9     3    18 1   
    10     3    19 1   
    11     4     6 1   
    12     4    20 1   
    13     4    21 1   
    14     5     7 1   
    15     5    22 1   
    16     5    23 1   
    17     6     8 1   
    18     6    24 1   
    19     6    25 1   
    20     7     8 1   
    21     7    26 1   
    22     7    27 1   
    23     8    12 1   
    24     8    28 1   
    25     9    13 1   
    26     9    29 1   
    27     9    30 1   
    28     9    31 1   
    29    10    13 1   
    30    10    32 1   
    31    10    33 1   
    32    10    34 1   
    33    11    14 1   
    34    11    35 1   
    35    11    36 1   
    36    12    14 1   
    37    12    37 1   
    38    14    38 1   
    39    14    39 1   
@<TRIPOS>SUBSTRUCTURE
     1 MOL         1 TEMP              0 ****  ****    0 ROOT
