@<TRIPOS>MOLECULE
MOL
   26    25     1     0     0
SMALL
No Charge or Current Charge


@<TRIPOS>ATOM
      1 C1           1.6410     0.4800     0.2050 C.2        1 MOL       0.000000
      2 C2           0.3350    -1.3140     1.3790 C.3        1 MOL       0.000000
      3 C3           4.0200     0.8230    -0.1590 C.3        1 MOL       0.000000
      4 C4           3.0330    -1.2890    -0.9290 C.3        1 MOL       0.000000
      5 C5          -3.0210     1.0750    -1.2910 C.3        1 MOL       0.000000
      6 C6           0.3820    -0.4090     0.1320 C.3        1 MOL       0.000000
      7 N1          -0.7330     0.5440     0.0220 N.3        1 MOL       0.000000
      8 N2           2.8200     0.0050    -0.3000 N.am       1 MOL       0.000000
      9 O1           1.5550     1.5740     0.7630 O.2        1 MOL       0.000000
     10 O2          -3.0210     0.1760     1.1910 O.2        1 MOL       0.000000
     11 O3          -2.2240    -1.3830    -0.6660 O.2        1 MOL       0.000000
     12 S1          -2.3070    -0.0430    -0.0720 S.o2       1 MOL       0.000000
     13 H1           0.3270    -0.7040     2.2870 H          1 MOL       0.000000
     14 H2          -0.5620    -1.9370     1.3580 H          1 MOL       0.000000
     15 H3           1.2100    -1.9740     1.4170 H          1 MOL       0.000000
     16 H4           4.7630     0.3080     0.4650 H          1 MOL       0.000000
     17 H5           3.7440     1.7670     0.3070 H          1 MOL       0.000000
     18 H6           4.4650     1.0110    -1.1440 H          1 MOL       0.000000
     19 H7           3.4500    -1.1560    -1.9350 H          1 MOL       0.000000
     20 H8           2.1080    -1.8550    -1.0150 H          1 MOL       0.000000
     21 H9           3.7460    -1.8850    -0.3430 H          1 MOL       0.000000
     22 H10         -4.0680     0.7890    -1.4110 H          1 MOL       0.000000
     23 H11         -2.9520     2.0990    -0.9180 H          1 MOL       0.000000
     24 H12         -2.4780     0.9650    -2.2300 H          1 MOL       0.000000
     25 H13          0.3550    -1.0210    -0.7700 H          1 MOL       0.000000
     26 H14         -0.6320     1.3020     0.6980 H          1 MOL       0.000000
@<TRIPOS>BOND
     1     1     6 1   
     2     1     8 am  
     3     1     9 2   
     4     2     6 1   
     5     2    13 1   
     6     2    14 1   
     7     2    15 1   
     8     3     8 1   
     9     3    16 1   
    10     3    17 1   
    11     3    18 1   
    12     4     8 1   
    13     4    19 1   
    14     4    20 1   
    15     4    21 1   
    16     5    12 1   
    17     5    22 1   
    18     5    23 1   
    19     5    24 1   
    20     6     7 1   
    21     6    25 1   
    22     7    12 1   
    23     7    26 1   
    24    10    12 2   
    25    11    12 2   
@<TRIPOS>SUBSTRUCTURE
     1 MOL         1 TEMP              0 ****  ****    0 ROOT
