@<TRIPOS>MOLECULE
MOL
   26    25     1     0     0
SMALL
No Charge or Current Charge


@<TRIPOS>ATOM
 1  C1  1.641000  0.480000  0.205000  C.2  1  MOL  0.636107 
 2  C2  0.335000  -1.314000  1.379000  C.3  1  MOL  -0.064538 
 3  C3  4.020000  0.823000  -0.159000  C.3  1  MOL  -0.071473 
 4  C4  3.033000  -1.289000  -0.929000  C.3  1  MOL  -0.089282 
 5  C5  -3.021000  1.075000  -1.291000  C.3  1  MOL  -0.412669 
 6  C6  0.382000  -0.409000  0.132000  C.3  1  MOL  -0.242643 
 7  N1  -0.733000  0.544000  0.022000  N.3  1  MOL  -0.497998 
 8  N2  2.820000  0.005000  -0.300000  N.am  1  MOL  -0.344286 
 9  O1  1.555000  1.574000  0.763000  O.2  1  MOL  -0.560519 
 10  O2  -3.021000  0.176000  1.191000  O.2  1  MOL  -0.518639 
 11  O3  -2.224000  -1.383000  -0.666000  O.2  1  MOL  -0.504040 
 12  S1  -2.307000  -0.043000  -0.072000  S.o2  1  MOL  0.947437 
 13  H1  0.327000  -0.704000  2.287000  H  1  MOL  0.060779 
 14  H2  -0.562000  -1.937000  1.358000  H  1  MOL  0.060779 
 15  H3  1.210000  -1.974000  1.417000  H  1  MOL  0.060779 
 16  H4  4.763000  0.308000  0.465000  H  1  MOL  0.087465 
 17  H5  3.744000  1.767000  0.307000  H  1  MOL  0.084069 
 18  H6  4.465000  1.011000  -1.144000  H  1  MOL  0.088028 
 19  H7  3.450000  -1.156000  -1.935000  H  1  MOL  0.094118 
 20  H8  2.108000  -1.855000  -1.015000  H  1  MOL  0.067267 
 21  H9  3.746000  -1.885000  -0.343000  H  1  MOL  0.084095 
 22  H10  -4.068000  0.789000  -1.411000  H  1  MOL  0.187843 
 23  H11  -2.952000  2.099000  -0.918000  H  1  MOL  0.155917 
 24  H12  -2.478000  0.965000  -2.230000  H  1  MOL  0.144151 
 25  H13  0.355000  -1.021000  -0.770000  H  1  MOL  0.200798 
 26  H14  -0.632000  1.302000  0.698000  H  1  MOL  0.346457 
@<TRIPOS>BOND
     1     1     6 1   
     2     1     8 am  
     3     1     9 2   
     4     2     6 1   
     5     2    13 1   
     6     2    14 1   
     7     2    15 1   
     8     3     8 1   
     9     3    16 1   
    10     3    17 1   
    11     3    18 1   
    12     4     8 1   
    13     4    19 1   
    14     4    20 1   
    15     4    21 1   
    16     5    12 1   
    17     5    22 1   
    18     5    23 1   
    19     5    24 1   
    20     6     7 1   
    21     6    25 1   
    22     7    12 1   
    23     7    26 1   
    24    10    12 2   
    25    11    12 2   
@<TRIPOS>SUBSTRUCTURE
     1 MOL         1 TEMP              0 ****  ****    0 ROOT
