@<TRIPOS>MOLECULE
MOL
   41    42     1     0     0
SMALL
No Charge or Current Charge


@<TRIPOS>ATOM
      1 C1          -4.3170     0.4700    -0.9590 C.ar       1 MOL       0.000000
      2 C2           2.5840     2.9740    -0.6840 C.ar       1 MOL       0.000000
      3 C3          -3.2990    -0.2830    -1.5480 C.ar       1 MOL       0.000000
      4 C4          -4.0730     1.1380     0.2410 C.ar       1 MOL       0.000000
      5 C5           2.3130     2.9620     0.6850 C.ar       1 MOL       0.000000
      6 C6           1.8720     2.1270    -1.5370 C.ar       1 MOL       0.000000
      7 C7          -2.0410    -0.3640    -0.9500 C.ar       1 MOL       0.000000
      8 C8          -2.8170     1.0550     0.8430 C.ar       1 MOL       0.000000
      9 C9           1.3410     2.1000     1.1940 C.ar       1 MOL       0.000000
     10 C10          0.9000     1.2660    -1.0260 C.ar       1 MOL       0.000000
     11 C11         -1.7780     0.3130     0.2540 C.ar       1 MOL       0.000000
     12 C12          0.6300     1.2350     0.3490 C.ar       1 MOL       0.000000
     13 C13          0.8010    -1.9580     0.1350 C.2        1 MOL       0.000000
     14 C14          2.6660    -2.5680    -1.2780 C.3        1 MOL       0.000000
     15 C15          3.0590    -0.9460     0.5370 C.3        1 MOL       0.000000
     16 C16         -0.4200     0.3110     0.9630 C.3        1 MOL       0.000000
     17 C17          0.1350    -1.1340     1.2780 C.3        1 MOL       0.000000
     18 N1           2.0970    -1.8010    -0.1600 N.am       1 MOL       0.000000
     19 N2          -1.0420    -2.0140     1.6630 N.4        1 MOL       0.000000
     20 O1           0.0580    -2.7770    -0.4400 O.2        1 MOL       0.000000
     21 H1          -5.2920     0.5320    -1.4310 H          1 MOL       0.000000
     22 H2           3.3340     3.6490    -1.0860 H          1 MOL       0.000000
     23 H3          -3.4820    -0.8120    -2.4790 H          1 MOL       0.000000
     24 H4          -4.8570     1.7260     0.7100 H          1 MOL       0.000000
     25 H5           2.8470     3.6290     1.3550 H          1 MOL       0.000000
     26 H6           2.0610     2.1470    -2.6060 H          1 MOL       0.000000
     27 H7          -1.2780    -0.9740    -1.4220 H          1 MOL       0.000000
     28 H8          -2.6340     1.5940     1.7700 H          1 MOL       0.000000
     29 H9           1.1270     2.1090     2.2610 H          1 MOL       0.000000
     30 H10          0.3370     0.6390    -1.7100 H          1 MOL       0.000000
     31 H11          3.1000    -1.8760    -2.0060 H          1 MOL       0.000000
     32 H12          1.8830    -3.1590    -1.7470 H          1 MOL       0.000000
     33 H13          3.4540    -3.2300    -0.9040 H          1 MOL       0.000000
     34 H14          3.4190    -0.1630    -0.1370 H          1 MOL       0.000000
     35 H15          3.9070    -1.5590     0.8590 H          1 MOL       0.000000
     36 H16          2.6200    -0.4620     1.4060 H          1 MOL       0.000000
     37 H17         -0.6150     0.7150     1.9640 H          1 MOL       0.000000
     38 H18          0.7910    -1.0700     2.1470 H          1 MOL       0.000000
     39 H19         -1.1230    -2.6530     0.8220 H          1 MOL       0.000000
     40 H20         -1.9070    -1.4660     1.7550 H          1 MOL       0.000000
     41 H21         -0.8830    -2.5710     2.5080 H          1 MOL       0.000000
@<TRIPOS>BOND
     1     1     3 ar  
     2     1     4 ar  
     3     1    21 1   
     4     2     5 ar  
     5     2     6 ar  
     6     2    22 1   
     7     3     7 ar  
     8     3    23 1   
     9     4     8 ar  
    10     4    24 1   
    11     5     9 ar  
    12     5    25 1   
    13     6    10 ar  
    14     6    26 1   
    15     7    11 ar  
    16     7    27 1   
    17     8    11 ar  
    18     8    28 1   
    19     9    12 ar  
    20     9    29 1   
    21    10    12 ar  
    22    10    30 1   
    23    11    16 1   
    24    12    16 1   
    25    13    17 1   
    26    13    18 am  
    27    13    20 2   
    28    14    18 1   
    29    14    31 1   
    30    14    32 1   
    31    14    33 1   
    32    15    18 1   
    33    15    34 1   
    34    15    35 1   
    35    15    36 1   
    36    16    17 1   
    37    16    37 1   
    38    17    19 1   
    39    17    38 1   
    40    19    39 1   
    41    19    40 1   
    42    19    41 1   
@<TRIPOS>SUBSTRUCTURE
     1 MOL         1 TEMP              0 ****  ****    0 ROOT
