@<TRIPOS>MOLECULE
MOL
   41    42     1     0     0
SMALL
No Charge or Current Charge


@<TRIPOS>ATOM
 1  C1  -4.317000  0.470000  -0.959000  C.ar  1  MOL  -0.079619 
 2  C2  2.584000  2.974000  -0.684000  C.ar  1  MOL  -0.079619 
 3  C3  -3.299000  -0.283000  -1.548000  C.ar  1  MOL  -0.168206 
 4  C4  -4.073000  1.138000  0.241000  C.ar  1  MOL  -0.168206 
 5  C5  2.313000  2.962000  0.685000  C.ar  1  MOL  -0.168206 
 6  C6  1.872000  2.127000  -1.537000  C.ar  1  MOL  -0.168206 
 7  C7  -2.041000  -0.364000  -0.950000  C.ar  1  MOL  -0.136391 
 8  C8  -2.817000  1.055000  0.843000  C.ar  1  MOL  -0.136391 
 9  C9  1.341000  2.100000  1.194000  C.ar  1  MOL  -0.136391 
 10  C10  0.900000  1.266000  -1.026000  C.ar  1  MOL  -0.136391 
 11  C11  -1.778000  0.313000  0.254000  C.ar  1  MOL  0.015502 
 12  C12  0.630000  1.235000  0.349000  C.ar  1  MOL  0.015502 
 13  C13  0.801000  -1.958000  0.135000  C.2  1  MOL  0.636107 
 14  C14  2.666000  -2.568000  -1.278000  C.3  1  MOL  -0.071473 
 15  C15  3.059000  -0.946000  0.537000  C.3  1  MOL  -0.089282 
 16  C16  -0.420000  0.311000  0.963000  C.3  1  MOL  0.051529 
 17  C17  0.135000  -1.134000  1.278000  C.3  1  MOL  0.387456 
 18  N1  2.097000  -1.801000  -0.160000  N.am  1  MOL  -0.344286 
 19  N2  -1.042000  -2.014000  1.663000  N.4  1  MOL  -0.422087 
 20  O1  0.058000  -2.777000  -0.440000  O.2  1  MOL  -0.560519 
 21  H1  -5.292000  0.532000  -1.431000  H  1  MOL  0.150628 
 22  H2  3.334000  3.649000  -1.086000  H  1  MOL  0.150628 
 23  H3  -3.482000  -0.812000  -2.479000  H  1  MOL  0.170305 
 24  H4  -4.857000  1.726000  0.710000  H  1  MOL  0.170305 
 25  H5  2.847000  3.629000  1.355000  H  1  MOL  0.170305 
 26  H6  2.061000  2.147000  -2.606000  H  1  MOL  0.170305 
 27  H7  -1.278000  -0.974000  -1.422000  H  1  MOL  0.112699 
 28  H8  -2.634000  1.594000  1.770000  H  1  MOL  0.112699 
 29  H9  1.127000  2.109000  2.261000  H  1  MOL  0.112699 
 30  H10  0.337000  0.639000  -1.710000  H  1  MOL  0.112699 
 31  H11  3.100000  -1.876000  -2.006000  H  1  MOL  0.087465 
 32  H12  1.883000  -3.159000  -1.747000  H  1  MOL  0.084069 
 33  H13  3.454000  -3.230000  -0.904000  H  1  MOL  0.088028 
 34  H14  3.419000  -0.163000  -0.137000  H  1  MOL  0.094118 
 35  H15  3.907000  -1.559000  0.859000  H  1  MOL  0.067267 
 36  H16  2.620000  -0.462000  1.406000  H  1  MOL  0.084095 
 37  H17  -0.615000  0.715000  1.964000  H  1  MOL  0.025272 
 38  H18  0.791000  -1.070000  2.147000  H  1  MOL  -0.044616 
 39  H19  -1.123000  -2.653000  0.822000  H  1  MOL  0.280069 
 40  H20  -1.907000  -1.466000  1.755000  H  1  MOL  0.280069 
 41  H21  -0.883000  -2.571000  2.508000  H  1  MOL  0.280069 
@<TRIPOS>BOND
     1     1     3 ar  
     2     1     4 ar  
     3     1    21 1   
     4     2     5 ar  
     5     2     6 ar  
     6     2    22 1   
     7     3     7 ar  
     8     3    23 1   
     9     4     8 ar  
    10     4    24 1   
    11     5     9 ar  
    12     5    25 1   
    13     6    10 ar  
    14     6    26 1   
    15     7    11 ar  
    16     7    27 1   
    17     8    11 ar  
    18     8    28 1   
    19     9    12 ar  
    20     9    29 1   
    21    10    12 ar  
    22    10    30 1   
    23    11    16 1   
    24    12    16 1   
    25    13    17 1   
    26    13    18 am  
    27    13    20 2   
    28    14    18 1   
    29    14    31 1   
    30    14    32 1   
    31    14    33 1   
    32    15    18 1   
    33    15    34 1   
    34    15    35 1   
    35    15    36 1   
    36    16    17 1   
    37    16    37 1   
    38    17    19 1   
    39    17    38 1   
    40    19    39 1   
    41    19    40 1   
    42    19    41 1   
@<TRIPOS>SUBSTRUCTURE
     1 MOL         1 TEMP              0 ****  ****    0 ROOT
