@<TRIPOS>MOLECULE
*****
 23 23 0 0 0
SMALL
GASTEIGER

@<TRIPOS>ATOM
      1 C           3.2155   -0.0398    3.2596 C.3     1  UNL1        0.0055
      2 N           2.7254    1.1562    2.5772 N.3     1  UNL1        0.1973
      3 S           3.0511    1.2885    0.9284 S.O2    1  UNL1        0.0332
      4 O           2.6674    0.0388    0.3085 O.2     1  UNL1        0.1579
      5 O           2.4616    2.5371    0.4917 O.2     1  UNL1        0.1579
      6 C           4.8563    1.4093    0.8769 C.3     1  UNL1        0.1067
      7 C           5.3496    2.5552    1.7275 C.ar    1  UNL1        0.0250
      8 C           6.1474    2.3221    2.8589 C.ar    1  UNL1        0.0570
      9 C           6.5855    3.3869    3.6509 C.ar    1  UNL1        0.0615
     10 C           6.2445    4.6952    3.3155 C.ar    1  UNL1        0.0617
     11 C           5.4776    4.9420    2.1812 C.ar    1  UNL1        0.0615
     12 C           5.0426    3.8810    1.3882 C.ar    1  UNL1        0.0570
     13 H           2.8370   -0.0510    4.2845 H       1  UNL1        0.0405
     14 H           4.3062   -0.0379    3.3100 H       1  UNL1        0.0405
     15 H           2.8728   -0.9475    2.7570 H       1  UNL1        0.0405
     16 H           2.8608    2.0446    3.0646 H       1  UNL1        0.1473
     17 H           5.1550    1.5374   -0.1672 H       1  UNL1        0.0565
     18 H           5.2478    0.4468    1.2233 H       1  UNL1        0.0565
     19 H           6.4415    1.3121    3.1375 H       1  UNL1        0.0621
     20 H           7.1979    3.1985    4.5297 H       1  UNL1        0.0618
     21 H           6.5825    5.5245    3.9315 H       1  UNL1        0.0618
     22 H           5.2146    5.9610    1.9085 H       1  UNL1        0.0618
     23 H           4.4450    4.1048    0.5051 H       1  UNL1        0.0621
@<TRIPOS>BOND
     1     1     2    1
     2     2     3    1
     3     3     4    2
     4     3     5    2
     5     3     6    1
     6     6     7    1
     7     7     8   ar
     8     8     9   ar
     9     9    10   ar
    10    10    11   ar
    11    11    12   ar
    12     7    12   ar
    13     1    13    1
    14     1    14    1
    15     1    15    1
    16     2    16    1
    17     6    17    1
    18     6    18    1
    19     8    19    1
    20     9    20    1
    21    10    21    1
    22    11    22    1
    23    12    23    1
