@<TRIPOS>MOLECULE
MOL
   23    23     1     0     0
SMALL
No Charge or Current Charge


@<TRIPOS>ATOM
 1  C1  3.949000  -0.642000  0.258000  C.1  1  MOL  0.342641 
 2  C2  2.303000  1.183000  0.300000  C.ar  1  MOL  -0.188865 
 3  C3  1.613000  -1.034000  -0.416000  C.ar  1  MOL  -0.188865 
 4  C4  1.004000  1.641000  0.094000  C.ar  1  MOL  -0.149144 
 5  C5  0.321000  -0.564000  -0.618000  C.ar  1  MOL  -0.149144 
 6  C6  2.615000  -0.161000  0.047000  C.ar  1  MOL  0.033376 
 7  C7  0.001000  0.779000  -0.363000  C.ar  1  MOL  0.118769 
 8  C8  -3.128000  -0.393000  0.065000  C.2  1  MOL  0.510929 
 9  C9  -4.058000  -0.876000  1.167000  C.3  1  MOL  -0.313908 
 10  C10  -1.418000  1.276000  -0.577000  C.3  1  MOL  -0.118739 
 11  N1  5.031000  -1.032000  0.432000  N.1  1  MOL  -0.465760 
 12  N2  -2.384000  0.717000  0.363000  N.am  1  MOL  -0.353167 
 13  O1  -3.061000  -0.959000  -1.022000  O.2  1  MOL  -0.514977 
 14  H1  3.077000  1.857000  0.655000  H  1  MOL  0.178521 
 15  H2  1.859000  -2.072000  -0.618000  H  1  MOL  0.178521 
 16  H3  0.770000  2.685000  0.290000  H  1  MOL  0.148678 
 17  H4  -0.454000  -1.232000  -0.982000  H  1  MOL  0.148678 
 18  H5  -5.074000  -0.934000  0.766000  H  1  MOL  0.111818 
 19  H6  -3.764000  -1.889000  1.459000  H  1  MOL  0.116842 
 20  H7  -4.061000  -0.237000  2.055000  H  1  MOL  0.089295 
 21  H8  -1.450000  2.368000  -0.502000  H  1  MOL  0.103775 
 22  H9  -1.769000  0.993000  -1.573000  H  1  MOL  0.103775 
 23  H10  -2.386000  1.067000  1.311000  H  1  MOL  0.256949 
@<TRIPOS>BOND
     1     1     6 1   
     2     1    11 3   
     3     2     4 ar  
     4     2     6 ar  
     5     2    14 1   
     6     3     5 ar  
     7     3     6 ar  
     8     3    15 1   
     9     4     7 ar  
    10     4    16 1   
    11     5     7 ar  
    12     5    17 1   
    13     7    10 1   
    14     8     9 1   
    15     8    12 am  
    16     8    13 2   
    17     9    18 1   
    18     9    19 1   
    19     9    20 1   
    20    10    12 1   
    21    10    21 1   
    22    10    22 1   
    23    12    23 1   
@<TRIPOS>SUBSTRUCTURE
     1 MOL         1 TEMP              0 ****  ****    0 ROOT
