@<TRIPOS>MOLECULE
MOL
   19    19     1     0     0
SMALL
No Charge or Current Charge


@<TRIPOS>ATOM
 1  C1  -0.227000  1.060000  -0.791000  C.2  1  MOL  -0.174796 
 2  C2  -1.550000  1.381000  -0.359000  C.2  1  MOL  -0.086347 
 3  C3  0.073000  -0.274000  -0.711000  C.2  1  MOL  0.010910 
 4  C4  -2.237000  0.274000  0.052000  C.2  1  MOL  -0.097670 
 5  C5  3.162000  0.211000  0.227000  C.2  1  MOL  0.510929 
 6  C6  4.019000  0.215000  1.484000  C.3  1  MOL  -0.313908 
 7  C7  1.385000  -0.946000  -1.025000  C.3  1  MOL  -0.077075 
 8  N1  2.362000  -0.891000  0.061000  N.am  1  MOL  -0.353167 
 9  O1  3.193000  1.126000  -0.587000  O.2  1  MOL  -0.514977 
 10  S1  -1.289000  -1.182000  -0.084000  S.3  1  MOL  0.025234 
 11  Cl1  -3.869000  0.216000  0.635000  Cl  1  MOL  -0.041541 
 12  H1  0.494000  1.792000  -1.138000  H  1  MOL  0.163456 
 13  H2  -1.972000  2.379000  -0.357000  H  1  MOL  0.158237 
 14  H3  5.039000  0.497000  1.211000  H  1  MOL  0.111818 
 15  H4  3.639000  0.980000  2.170000  H  1  MOL  0.116842 
 16  H5  4.038000  -0.747000  2.005000  H  1  MOL  0.089295 
 17  H6  1.235000  -1.996000  -1.297000  H  1  MOL  0.107905 
 18  H7  1.845000  -0.439000  -1.877000  H  1  MOL  0.107905 
 19  H8  2.246000  -1.527000  0.838000  H  1  MOL  0.256949 
@<TRIPOS>BOND
     1     1     2 1   
     2     1     3 2   
     3     1    12 1   
     4     2     4 2   
     5     2    13 1   
     6     3     7 1   
     7     3    10 1   
     8     4    10 1   
     9     4    11 1   
    10     5     6 1   
    11     5     8 am  
    12     5     9 2   
    13     6    14 1   
    14     6    15 1   
    15     6    16 1   
    16     7     8 1   
    17     7    17 1   
    18     7    18 1   
    19     8    19 1   
@<TRIPOS>SUBSTRUCTURE
     1 MOL         1 TEMP              0 ****  ****    0 ROOT
