@<TRIPOS>MOLECULE
*****
 34 34 0 0 0
SMALL
GASTEIGER

@<TRIPOS>ATOM
      1 C           1.0554    0.5047   -0.4796 C.3     1  UNL1        0.0030
      2 N           2.5108    0.5595   -0.4680 N.am    1  UNL1        0.3032
      3 C           3.2268   -0.1392   -1.5283 C.3     1  UNL1        0.0030
      4 C           3.1393    1.2176    0.5785 C.2     1  UNL1        0.2602
      5 O           2.5502    1.8574    1.4490 O.2     1  UNL1        0.2697
      6 C           4.6605    1.1098    0.6515 C.3     1  UNL1        0.0446
      7 N           5.2897    2.2711    1.3852 N.4     1  UNL1        0.2357
      8 H           4.9298    3.1360    0.9535 H       1  UNL1        0.2021
      9 H           4.8854    2.2939    2.3347 H       1  UNL1        0.2021
     10 C           6.7923    2.2790    1.3728 C.3     1  UNL1        0.0222
     11 C           7.3034    3.5450    2.0613 C.3     1  UNL1        0.0097
     12 C           7.0145    3.5489    3.5609 C.3     1  UNL1        0.0480
     13 C           7.5611    2.2977    4.2447 C.3     1  UNL1        0.0527
     14 C           7.1221    1.0043    3.5617 C.3     1  UNL1        0.0480
     15 C           7.3677    1.0329    2.0550 C.3     1  UNL1        0.0097
     16 H           0.6864   -0.0081   -1.3721 H       1  UNL1        0.0428
     17 H           0.6553    1.5219   -0.4549 H       1  UNL1        0.0428
     18 H           0.7172   -0.0336    0.4112 H       1  UNL1        0.0428
     19 H           2.5439   -0.5908   -2.2504 H       1  UNL1        0.0428
     20 H           3.8577   -0.9138   -1.0827 H       1  UNL1        0.0428
     21 H           3.8629    0.5821   -2.0515 H       1  UNL1        0.0428
     22 H           5.1206    1.0946   -0.3354 H       1  UNL1        0.0912
     23 H           4.8915    0.2035    1.2161 H       1  UNL1        0.0912
     24 H           7.0835    2.2967    0.3160 H       1  UNL1        0.0850
     25 H           6.8782    4.4404    1.5939 H       1  UNL1        0.0320
     26 H           8.3906    3.6051    1.9145 H       1  UNL1        0.0320
     27 H           5.9350    3.6232    3.7340 H       1  UNL1        0.0267
     28 H           7.4648    4.4384    4.0160 H       1  UNL1        0.0267
     29 H           7.2408    2.2837    5.2927 H       1  UNL1        0.0265
     30 H           8.6570    2.3441    4.2499 H       1  UNL1        0.0265
     31 H           6.0603    0.8215    3.7634 H       1  UNL1        0.0267
     32 H           7.6725    0.1622    3.9982 H       1  UNL1        0.0267
     33 H           6.9855    0.1122    1.6020 H       1  UNL1        0.0320
     34 H           8.4507    1.0134    1.8772 H       1  UNL1        0.0320
@<TRIPOS>BOND
     1     1     2    1
     2     2     3    1
     3     2     4   am
     4     4     5    2
     5     4     6    1
     6     6     7    1
     7     7     8    1
     8     7     9    1
     9     7    10    1
    10    10    11    1
    11    11    12    1
    12    12    13    1
    13    13    14    1
    14    14    15    1
    15    10    15    1
    16     1    16    1
    17     1    17    1
    18     1    18    1
    19     3    19    1
    20     3    20    1
    21     3    21    1
    22     6    22    1
    23     6    23    1
    24    10    24    1
    25    11    25    1
    26    11    26    1
    27    12    27    1
    28    12    28    1
    29    13    29    1
    30    13    30    1
    31    14    31    1
    32    14    32    1
    33    15    33    1
    34    15    34    1
