@<TRIPOS>MOLECULE
MOL
   41    42     1     0     0
SMALL
No Charge or Current Charge


@<TRIPOS>ATOM
      1 C1           1.6460     3.5390    -0.0770 C.ar       1 MOL       0.000000
      2 C2          -4.7350    -0.0160     0.1310 C.ar       1 MOL       0.000000
      3 C3           0.7000     3.1780     0.8850 C.ar       1 MOL       0.000000
      4 C4           1.9020     2.6840    -1.1500 C.ar       1 MOL       0.000000
      5 C5          -4.1700     0.0420    -1.1450 C.ar       1 MOL       0.000000
      6 C6          -3.9110    -0.1710     1.2450 C.ar       1 MOL       0.000000
      7 C7           0.0180     1.9650     0.7790 C.ar       1 MOL       0.000000
      8 C8           1.2210     1.4700    -1.2540 C.ar       1 MOL       0.000000
      9 C9          -2.7880    -0.0550    -1.3040 C.ar       1 MOL       0.000000
     10 C10         -2.5250    -0.2620     1.0860 C.ar       1 MOL       0.000000
     11 C11          0.2780     1.0930    -0.2870 C.ar       1 MOL       0.000000
     12 C12         -1.9430    -0.1970    -0.1920 C.ar       1 MOL       0.000000
     13 C13          1.6580    -1.7410    -0.0960 C.2        1 MOL       0.000000
     14 C14          4.0630    -1.5460    -0.2210 C.3        1 MOL       0.000000
     15 C15          2.8650    -0.1810     1.4490 C.3        1 MOL       0.000000
     16 C16         -0.4320    -0.2550    -0.4250 C.3        1 MOL       0.000000
     17 C17          0.2560    -1.3500     0.4540 C.3        1 MOL       0.000000
     18 N1           2.7760    -1.1840     0.3880 N.am       1 MOL       0.000000
     19 N2          -0.5240    -2.6400     0.2740 N.4        1 MOL       0.000000
     20 O1           1.6360    -2.5930    -1.0010 O.2        1 MOL       0.000000
     21 H1           2.1690     4.4880     0.0020 H          1 MOL       0.000000
     22 H2          -5.8110     0.0570     0.2550 H          1 MOL       0.000000
     23 H3           0.4820     3.8460     1.7130 H          1 MOL       0.000000
     24 H4           2.6200     2.9650    -1.9150 H          1 MOL       0.000000
     25 H5          -4.8040     0.1590    -2.0180 H          1 MOL       0.000000
     26 H6          -4.3410    -0.2170     2.2410 H          1 MOL       0.000000
     27 H7          -0.7370     1.7160     1.5190 H          1 MOL       0.000000
     28 H8           1.4180     0.8150    -2.1000 H          1 MOL       0.000000
     29 H9          -2.3570    -0.0030    -2.3010 H          1 MOL       0.000000
     30 H10         -1.9050    -0.3670     1.9750 H          1 MOL       0.000000
     31 H11          4.5130    -0.6600    -0.6800 H          1 MOL       0.000000
     32 H12          3.9010    -2.3120    -0.9770 H          1 MOL       0.000000
     33 H13          4.7370    -1.9250     0.5540 H          1 MOL       0.000000
     34 H14          1.8980     0.0190     1.9040 H          1 MOL       0.000000
     35 H15          3.2420     0.7610     1.0380 H          1 MOL       0.000000
     36 H16          3.5560    -0.5370     2.2200 H          1 MOL       0.000000
     37 H17         -0.2790    -0.5870    -1.4590 H          1 MOL       0.000000
     38 H18          0.2370    -1.0970     1.5120 H          1 MOL       0.000000
     39 H19         -0.0590    -3.0770    -0.5610 H          1 MOL       0.000000
     40 H20         -1.5210    -2.4390     0.1140 H          1 MOL       0.000000
     41 H21         -0.4310    -3.2820     1.0670 H          1 MOL       0.000000
@<TRIPOS>BOND
     1     1     3 ar  
     2     1     4 ar  
     3     1    21 1   
     4     2     5 ar  
     5     2     6 ar  
     6     2    22 1   
     7     3     7 ar  
     8     3    23 1   
     9     4     8 ar  
    10     4    24 1   
    11     5     9 ar  
    12     5    25 1   
    13     6    10 ar  
    14     6    26 1   
    15     7    11 ar  
    16     7    27 1   
    17     8    11 ar  
    18     8    28 1   
    19     9    12 ar  
    20     9    29 1   
    21    10    12 ar  
    22    10    30 1   
    23    11    16 1   
    24    12    16 1   
    25    13    17 1   
    26    13    18 am  
    27    13    20 2   
    28    14    18 1   
    29    14    31 1   
    30    14    32 1   
    31    14    33 1   
    32    15    18 1   
    33    15    34 1   
    34    15    35 1   
    35    15    36 1   
    36    16    17 1   
    37    16    37 1   
    38    17    19 1   
    39    17    38 1   
    40    19    39 1   
    41    19    40 1   
    42    19    41 1   
@<TRIPOS>SUBSTRUCTURE
     1 MOL         1 TEMP              0 ****  ****    0 ROOT
