@<TRIPOS>MOLECULE
MOL
   41    42     1     0     0
SMALL
No Charge or Current Charge


@<TRIPOS>ATOM
 1  C1  1.646000  3.539000  -0.077000  C.ar  1  MOL  -0.079619 
 2  C2  -4.735000  -0.016000  0.131000  C.ar  1  MOL  -0.079619 
 3  C3  0.700000  3.178000  0.885000  C.ar  1  MOL  -0.168206 
 4  C4  1.902000  2.684000  -1.150000  C.ar  1  MOL  -0.168206 
 5  C5  -4.170000  0.042000  -1.145000  C.ar  1  MOL  -0.168206 
 6  C6  -3.911000  -0.171000  1.245000  C.ar  1  MOL  -0.168206 
 7  C7  0.018000  1.965000  0.779000  C.ar  1  MOL  -0.136391 
 8  C8  1.221000  1.470000  -1.254000  C.ar  1  MOL  -0.136391 
 9  C9  -2.788000  -0.055000  -1.304000  C.ar  1  MOL  -0.136391 
 10  C10  -2.525000  -0.262000  1.086000  C.ar  1  MOL  -0.136391 
 11  C11  0.278000  1.093000  -0.287000  C.ar  1  MOL  0.015502 
 12  C12  -1.943000  -0.197000  -0.192000  C.ar  1  MOL  0.015502 
 13  C13  1.658000  -1.741000  -0.096000  C.2  1  MOL  0.636107 
 14  C14  4.063000  -1.546000  -0.221000  C.3  1  MOL  -0.071473 
 15  C15  2.865000  -0.181000  1.449000  C.3  1  MOL  -0.089282 
 16  C16  -0.432000  -0.255000  -0.425000  C.3  1  MOL  0.051529 
 17  C17  0.256000  -1.350000  0.454000  C.3  1  MOL  0.387456 
 18  N1  2.776000  -1.184000  0.388000  N.am  1  MOL  -0.344286 
 19  N2  -0.524000  -2.640000  0.274000  N.4  1  MOL  -0.422087 
 20  O1  1.636000  -2.593000  -1.001000  O.2  1  MOL  -0.560519 
 21  H1  2.169000  4.488000  0.002000  H  1  MOL  0.150628 
 22  H2  -5.811000  0.057000  0.255000  H  1  MOL  0.150628 
 23  H3  0.482000  3.846000  1.713000  H  1  MOL  0.170305 
 24  H4  2.620000  2.965000  -1.915000  H  1  MOL  0.170305 
 25  H5  -4.804000  0.159000  -2.018000  H  1  MOL  0.170305 
 26  H6  -4.341000  -0.217000  2.241000  H  1  MOL  0.170305 
 27  H7  -0.737000  1.716000  1.519000  H  1  MOL  0.112699 
 28  H8  1.418000  0.815000  -2.100000  H  1  MOL  0.112699 
 29  H9  -2.357000  -0.003000  -2.301000  H  1  MOL  0.112699 
 30  H10  -1.905000  -0.367000  1.975000  H  1  MOL  0.112699 
 31  H11  4.513000  -0.660000  -0.680000  H  1  MOL  0.087465 
 32  H12  3.901000  -2.312000  -0.977000  H  1  MOL  0.084069 
 33  H13  4.737000  -1.925000  0.554000  H  1  MOL  0.088028 
 34  H14  1.898000  0.019000  1.904000  H  1  MOL  0.094118 
 35  H15  3.242000  0.761000  1.038000  H  1  MOL  0.067267 
 36  H16  3.556000  -0.537000  2.220000  H  1  MOL  0.084095 
 37  H17  -0.279000  -0.587000  -1.459000  H  1  MOL  0.025272 
 38  H18  0.237000  -1.097000  1.512000  H  1  MOL  -0.044616 
 39  H19  -0.059000  -3.077000  -0.561000  H  1  MOL  0.280069 
 40  H20  -1.521000  -2.439000  0.114000  H  1  MOL  0.280069 
 41  H21  -0.431000  -3.282000  1.067000  H  1  MOL  0.280069 
@<TRIPOS>BOND
     1     1     3 ar  
     2     1     4 ar  
     3     1    21 1   
     4     2     5 ar  
     5     2     6 ar  
     6     2    22 1   
     7     3     7 ar  
     8     3    23 1   
     9     4     8 ar  
    10     4    24 1   
    11     5     9 ar  
    12     5    25 1   
    13     6    10 ar  
    14     6    26 1   
    15     7    11 ar  
    16     7    27 1   
    17     8    11 ar  
    18     8    28 1   
    19     9    12 ar  
    20     9    29 1   
    21    10    12 ar  
    22    10    30 1   
    23    11    16 1   
    24    12    16 1   
    25    13    17 1   
    26    13    18 am  
    27    13    20 2   
    28    14    18 1   
    29    14    31 1   
    30    14    32 1   
    31    14    33 1   
    32    15    18 1   
    33    15    34 1   
    34    15    35 1   
    35    15    36 1   
    36    16    17 1   
    37    16    37 1   
    38    17    19 1   
    39    17    38 1   
    40    19    39 1   
    41    19    40 1   
    42    19    41 1   
@<TRIPOS>SUBSTRUCTURE
     1 MOL         1 TEMP              0 ****  ****    0 ROOT
