@<TRIPOS>MOLECULE
*****
 16 16 0 0 0
SMALL
GASTEIGER

@<TRIPOS>ATOM
      1 N           1.1236   -0.1141   -0.0943 N.am    1  UNL1        0.3253
      2 C           2.4860   -0.0755   -0.0024 C.2     1  UNL1        0.2416
      3 O           3.1293    0.8757   -0.4267 O.2     1  UNL1        0.2704
      4 C           3.1485   -1.2260    0.6561 C.ar    1  UNL1        0.0379
      5 C           4.3280   -1.0038    1.3782 C.ar    1  UNL1        0.0496
      6 C           4.9983   -2.0759    1.9698 C.ar    1  UNL1        0.0597
      7 C           4.5081   -3.3730    1.8130 C.ar    1  UNL1        0.0433
      8 C           3.3403   -3.5904    1.0815 C.ar    1  UNL1        0.0417
      9 CL          2.7642   -5.1957    0.8510 Cl      1  UNL1        0.0835
     10 C           2.6469   -2.5238    0.5130 C.ar    1  UNL1        0.0313
     11 H           0.6703    0.7025   -0.4844 H       1  UNL1        0.1453
     12 H           0.5562   -0.7652    0.4297 H       1  UNL1        0.1453
     13 H           4.7273    0.0047    1.4747 H       1  UNL1        0.0625
     14 H           5.9097   -1.9021    2.5373 H       1  UNL1        0.0618
     15 H           5.0476   -4.2099    2.2496 H       1  UNL1        0.0632
     16 H           1.7516   -2.7122   -0.0714 H       1  UNL1        0.0640
@<TRIPOS>BOND
     1     1     2   am
     2     2     3    2
     3     2     4    1
     4     4     5   ar
     5     5     6   ar
     6     6     7   ar
     7     7     8   ar
     8     8     9    1
     9     8    10   ar
    10     4    10   ar
    11     1    11    1
    12     1    12    1
    13     5    13    1
    14     6    14    1
    15     7    15    1
    16    10    16    1
