@<TRIPOS>MOLECULE
*****
 23 23 0 0 0
SMALL
GASTEIGER

@<TRIPOS>ATOM
      1 C           1.8843    2.3253   -0.6462 C.3     1  UNL1        0.0122
      2 C           3.2645    1.7315   -0.5835 C.2     1  UNL1        0.2102
      3 O           4.1869    2.2797    0.0117 O.2     1  UNL1        0.2761
      4 N           3.3875    0.5383   -1.2518 N.am    1  UNL1        0.3114
      5 C           4.6405   -0.1852   -1.3043 C.3     1  UNL1        0.0370
      6 C           5.0831   -0.3873   -2.7266 C.ar    1  UNL1        0.0257
      7 C           5.3683    0.7013   -3.5519 C.ar    1  UNL1        0.0388
      8 C           5.7318    0.4532   -4.8645 C.ar    1  UNL1        0.0300
      9 N           5.8115   -0.7841   -5.4044 N.ar    1  UNL1        0.2407
     10 C           5.5601   -1.8253   -4.5952 C.ar    1  UNL1        0.1164
     11 N           5.7196   -3.0981   -5.1350 N.pl3   1  UNL1        0.3431
     12 C           5.2272   -1.6729   -3.2563 C.ar    1  UNL1        0.0174
     13 H           1.8687    3.2647   -0.0853 H       1  UNL1        0.0322
     14 H           1.1597    1.6391   -0.1995 H       1  UNL1        0.0322
     15 H           1.6121    2.5324   -1.6846 H       1  UNL1        0.0322
     16 H           2.5914    0.1526   -1.7426 H       1  UNL1        0.1490
     17 H           4.4588   -1.1498   -0.8172 H       1  UNL1        0.0512
     18 H           5.4250    0.3277   -0.7389 H       1  UNL1        0.0512
     19 H           5.3127    1.7200   -3.1798 H       1  UNL1        0.0636
     20 H           5.9785    1.2694   -5.5381 H       1  UNL1        0.0830
     21 H           5.8224   -2.9905   -6.1410 H       1  UNL1        0.1437
     22 H           4.9772   -3.7349   -4.8787 H       1  UNL1        0.1437
     23 H           5.0742   -2.5510   -2.6381 H       1  UNL1        0.0655
@<TRIPOS>BOND
     1     1     2    1
     2     2     3    2
     3     2     4   am
     4     4     5    1
     5     5     6    1
     6     6     7   ar
     7     7     8   ar
     8     8     9   ar
     9     9    10   ar
    10    10    11    1
    11    10    12   ar
    12     6    12   ar
    13     1    13    1
    14     1    14    1
    15     1    15    1
    16     4    16    1
    17     5    17    1
    18     5    18    1
    19     7    19    1
    20     8    20    1
    21    11    21    1
    22    11    22    1
    23    12    23    1
