@<TRIPOS>MOLECULE
MOL
   19    18     1     0     0
SMALL
No Charge or Current Charge


@<TRIPOS>ATOM
      1 C1           2.3390    -0.1760     0.0000 C.2        1 MOL       0.000000
      2 C2          -1.3590     0.1550    -0.0000 C.2        1 MOL       0.000000
      3 C3           3.4070     0.9080     0.0000 C.3        1 MOL       0.000000
      4 C4          -3.8250    -0.0190     0.0000 C.3        1 MOL       0.000000
      5 C5          -0.0580    -0.6530    -0.0000 C.3        1 MOL       0.000000
      6 N1          -2.4920    -0.5970     0.0000 N.am       1 MOL       0.000000
      7 N2           1.0520     0.2660    -0.0000 N.am       1 MOL       0.000000
      8 O1           2.6160    -1.3710     0.0000 O.2        1 MOL       0.000000
      9 O2          -1.3550     1.3830    -0.0000 O.2        1 MOL       0.000000
     10 H1           4.0430     0.7780     0.8810 H          1 MOL       0.000000
     11 H2           4.0420     0.7790    -0.8810 H          1 MOL       0.000000
     12 H3           3.0010     1.9250     0.0010 H          1 MOL       0.000000
     13 H4          -4.3870    -0.3210     0.8920 H          1 MOL       0.000000
     14 H5          -4.3860    -0.3210    -0.8920 H          1 MOL       0.000000
     15 H6          -3.7120     1.0660     0.0000 H          1 MOL       0.000000
     16 H7          -0.0210    -1.3120     0.8790 H          1 MOL       0.000000
     17 H8          -0.0210    -1.3110    -0.8800 H          1 MOL       0.000000
     18 H9          -2.4000    -1.6030    -0.0000 H          1 MOL       0.000000
     19 H10          0.8010     1.2470    -0.0000 H          1 MOL       0.000000
@<TRIPOS>BOND
     1     1     3 1   
     2     1     7 am  
     3     1     8 2   
     4     2     5 1   
     5     2     6 am  
     6     2     9 2   
     7     3    10 1   
     8     3    11 1   
     9     3    12 1   
    10     4     6 1   
    11     4    13 1   
    12     4    14 1   
    13     4    15 1   
    14     5     7 1   
    15     5    16 1   
    16     5    17 1   
    17     6    18 1   
    18     7    19 1   
@<TRIPOS>SUBSTRUCTURE
     1 MOL         1 TEMP              0 ****  ****    0 ROOT
