@<TRIPOS>MOLECULE
MOL
   15    14     1     0     0
SMALL
No Charge or Current Charge


@<TRIPOS>ATOM
 1  C1  0.190000  0.763000  0.000000  C.2  1  MOL  0.562201 
 2  C2  -1.052000  1.649000  0.000000  C.3  1  MOL  -0.157534 
 3  C3  1.162000  -1.477000  0.000000  C.3  1  MOL  -0.127701 
 4  C4  -1.286000  -1.274000  0.000000  C.3  1  MOL  -0.127701 
 5  N1  0.000000  -0.602000  0.000000  N.am  1  MOL  -0.199344 
 6  O1  1.311000  1.261000  0.000000  O.2  1  MOL  -0.565919 
 7  H1  -1.676000  1.485000  0.886000  H  1  MOL  0.062556 
 8  H2  -0.706000  2.683000  0.000000  H  1  MOL  0.040540 
 9  H3  -1.676000  1.485000  -0.886000  H  1  MOL  0.058157 
 10  H4  1.160000  -2.122000  0.890000  H  1  MOL  0.075791 
 11  H5  2.057000  -0.858000  0.000000  H  1  MOL  0.075791 
 12  H6  1.160000  -2.122000  -0.890000  H  1  MOL  0.075791 
 13  H7  -1.389000  -1.914000  -0.888000  H  1  MOL  0.075791 
 14  H8  -2.107000  -0.559000  0.000000  H  1  MOL  0.075791 
 15  H9  -1.389000  -1.914000  0.888000  H  1  MOL  0.075791 
@<TRIPOS>BOND
     1     1     2 1   
     2     1     5 am  
     3     1     6 2   
     4     2     7 1   
     5     2     8 1   
     6     2     9 1   
     7     3     5 1   
     8     3    10 1   
     9     3    11 1   
    10     3    12 1   
    11     4     5 1   
    12     4    13 1   
    13     4    14 1   
    14     4    15 1   
@<TRIPOS>SUBSTRUCTURE
     1 MOL         1 TEMP              0 ****  ****    0 ROOT
