@<TRIPOS>MOLECULE
MOL
   15    14     1     0     0
SMALL
No Charge or Current Charge


@<TRIPOS>ATOM
      1 C1           0.1900     0.7630     0.0000 C.2        1 MOL       0.000000
      2 C2          -1.0520     1.6490     0.0000 C.3        1 MOL       0.000000
      3 C3           1.1620    -1.4770     0.0000 C.3        1 MOL       0.000000
      4 C4          -1.2860    -1.2740     0.0000 C.3        1 MOL       0.000000
      5 N1           0.0000    -0.6020     0.0000 N.am       1 MOL       0.000000
      6 O1           1.3110     1.2610     0.0000 O.2        1 MOL       0.000000
      7 H1          -1.6760     1.4850     0.8860 H          1 MOL       0.000000
      8 H2          -0.7060     2.6830     0.0000 H          1 MOL       0.000000
      9 H3          -1.6760     1.4850    -0.8860 H          1 MOL       0.000000
     10 H4           1.1600    -2.1220     0.8900 H          1 MOL       0.000000
     11 H5           2.0570    -0.8580     0.0000 H          1 MOL       0.000000
     12 H6           1.1600    -2.1220    -0.8900 H          1 MOL       0.000000
     13 H7          -1.3890    -1.9140    -0.8880 H          1 MOL       0.000000
     14 H8          -2.1070    -0.5590     0.0000 H          1 MOL       0.000000
     15 H9          -1.3890    -1.9140     0.8880 H          1 MOL       0.000000
@<TRIPOS>BOND
     1     1     2 1   
     2     1     5 am  
     3     1     6 2   
     4     2     7 1   
     5     2     8 1   
     6     2     9 1   
     7     3     5 1   
     8     3    10 1   
     9     3    11 1   
    10     3    12 1   
    11     4     5 1   
    12     4    13 1   
    13     4    14 1   
    14     4    15 1   
@<TRIPOS>SUBSTRUCTURE
     1 MOL         1 TEMP              0 ****  ****    0 ROOT
