@<TRIPOS>MOLECULE
*****
 18 18 0 0 0
SMALL
GASTEIGER

@<TRIPOS>ATOM
      1 C           3.3788    1.6493    0.1265 C.3     1  UNL1        0.0125
      2 C           2.7127    0.3368    0.4612 C.2     1  UNL1        0.2152
      3 O           1.4870    0.2222    0.4278 O.2     1  UNL1        0.2757
      4 N           3.4694   -0.7243    0.8777 N.am    1  UNL1        0.2706
      5 C           4.8617   -0.7912    0.9556 C.ar    1  UNL1        0.1248
      6 C           5.4362   -1.7747    1.7496 C.ar    1  UNL1        0.0215
      7 C           6.8195   -1.7572    1.9347 C.ar    1  UNL1        0.0571
      8 C           7.5877   -0.7977    1.2857 C.ar    1  UNL1        0.0435
      9 C           6.9401    0.0967    0.4604 C.ar    1  UNL1        0.0297
     10 N           5.6047    0.1149    0.2949 N.ar    1  UNL1        0.2401
     11 H           2.6192    2.4159   -0.0458 H       1  UNL1        0.0323
     12 H           3.9734    1.5585   -0.7856 H       1  UNL1        0.0323
     13 H           3.9951    1.9817    0.9684 H       1  UNL1        0.0323
     14 H           2.9244   -1.5040    1.2166 H       1  UNL1        0.1562
     15 H           4.8319   -2.5102    2.2694 H       1  UNL1        0.0652
     16 H           7.2939   -2.4759    2.5968 H       1  UNL1        0.0619
     17 H           8.6615   -0.7431    1.4194 H       1  UNL1        0.0633
     18 H           7.4803    0.8567   -0.0960 H       1  UNL1        0.0830
@<TRIPOS>BOND
     1     1     2    1
     2     2     3    2
     3     2     4   am
     4     4     5    1
     5     5     6   ar
     6     6     7   ar
     7     7     8   ar
     8     8     9   ar
     9     9    10   ar
    10     5    10   ar
    11     1    11    1
    12     1    12    1
    13     1    13    1
    14     4    14    1
    15     6    15    1
    16     7    16    1
    17     8    17    1
    18     9    18    1
