@<TRIPOS>MOLECULE
MOL
   21    21     1     0     0
SMALL
No Charge or Current Charge


@<TRIPOS>ATOM
      1 C1          -2.1600     1.4940     0.0410 C.ar       1 MOL       0.000000
      2 C2          -0.9490     0.9440    -0.3710 C.ar       1 MOL       0.000000
      3 C3          -3.1840     0.6340     0.4450 C.ar       1 MOL       0.000000
      4 C4          -1.8970    -1.2100     0.0560 C.ar       1 MOL       0.000000
      5 C5          -0.8020    -0.4490    -0.3650 C.ar       1 MOL       0.000000
      6 C6           2.4760     0.1440     0.0060 C.2        1 MOL       0.000000
      7 C7           3.5320     0.2590     1.0950 C.3        1 MOL       0.000000
      8 C8           0.4950    -1.1080    -0.7920 C.3        1 MOL       0.000000
      9 N1          -3.0680    -0.6990     0.4560 N.ar       1 MOL       0.000000
     10 N2           1.6000    -0.8990     0.1420 N.am       1 MOL       0.000000
     11 O1           2.4270     0.9300    -0.9340 O.2        1 MOL       0.000000
     12 H1          -2.3140     2.5690     0.0460 H          1 MOL       0.000000
     13 H2          -0.1240     1.5710    -0.6960 H          1 MOL       0.000000
     14 H3          -4.1430     1.0330     0.7730 H          1 MOL       0.000000
     15 H4          -1.8260    -2.2990     0.0680 H          1 MOL       0.000000
     16 H5           4.5190     0.2730     0.6230 H          1 MOL       0.000000
     17 H6           3.4050     1.2150     1.6120 H          1 MOL       0.000000
     18 H7           3.5010    -0.5510     1.8300 H          1 MOL       0.000000
     19 H8           0.3460    -2.1860    -0.9120 H          1 MOL       0.000000
     20 H9           0.8290    -0.7030    -1.7500 H          1 MOL       0.000000
     21 H10          1.6020    -1.4290     1.0020 H          1 MOL       0.000000
@<TRIPOS>BOND
     1     1     2 ar  
     2     1     3 ar  
     3     1    12 1   
     4     2     5 ar  
     5     2    13 1   
     6     3     9 ar  
     7     3    14 1   
     8     4     5 ar  
     9     4     9 ar  
    10     4    15 1   
    11     5     8 1   
    12     6     7 1   
    13     6    10 am  
    14     6    11 2   
    15     7    16 1   
    16     7    17 1   
    17     7    18 1   
    18     8    10 1   
    19     8    19 1   
    20     8    20 1   
    21    10    21 1   
@<TRIPOS>SUBSTRUCTURE
     1 MOL         1 TEMP              0 ****  ****    0 ROOT
