@<TRIPOS>MOLECULE
MOL
   15    14     1     0     0
SMALL
No Charge or Current Charge


@<TRIPOS>ATOM
      1 C1           0.9630     0.1670    -0.0430 C.2        1 MOL       0.000000
      2 C2           2.2490    -0.5860     0.2730 C.3        1 MOL       0.000000
      3 C3          -2.3330    -0.0490     0.6290 C.3        1 MOL       0.000000
      4 C4          -1.4360    -0.0570    -0.6120 C.3        1 MOL       0.000000
      5 N1          -0.1130    -0.6160    -0.3640 N.am       1 MOL       0.000000
      6 O1           0.9090     1.3910    -0.0200 O.2        1 MOL       0.000000
      7 H1           3.0460    -0.2030    -0.3710 H          1 MOL       0.000000
      8 H2           2.5370    -0.3750     1.3080 H          1 MOL       0.000000
      9 H3           2.1740    -1.6700     0.1400 H          1 MOL       0.000000
     10 H4          -2.4900    -1.0630     1.0170 H          1 MOL       0.000000
     11 H5          -1.8810     0.5560     1.4210 H          1 MOL       0.000000
     12 H6          -3.3150     0.3760     0.3890 H          1 MOL       0.000000
     13 H7          -1.2750     0.9630    -0.9680 H          1 MOL       0.000000
     14 H8          -1.9050    -0.6270    -1.4230 H          1 MOL       0.000000
     15 H9          -0.0250    -1.6190    -0.2790 H          1 MOL       0.000000
@<TRIPOS>BOND
     1     1     2 1   
     2     1     5 am  
     3     1     6 2   
     4     2     7 1   
     5     2     8 1   
     6     2     9 1   
     7     3     4 1   
     8     3    10 1   
     9     3    11 1   
    10     3    12 1   
    11     4     5 1   
    12     4    13 1   
    13     4    14 1   
    14     5    15 1   
@<TRIPOS>SUBSTRUCTURE
     1 MOL         1 TEMP              0 ****  ****    0 ROOT
