@<TRIPOS>MOLECULE
MOL
   15    14     1     0     0
SMALL
No Charge or Current Charge


@<TRIPOS>ATOM
 1  C1  0.963000  0.167000  -0.043000  C.2  1  MOL  0.510929 
 2  C2  2.249000  -0.586000  0.273000  C.3  1  MOL  -0.313908 
 3  C3  -2.333000  -0.049000  0.629000  C.3  1  MOL  0.043909 
 4  C4  -1.436000  -0.057000  -0.612000  C.3  1  MOL  -0.218117 
 5  N1  -0.113000  -0.616000  -0.364000  N.am  1  MOL  -0.353167 
 6  O1  0.909000  1.391000  -0.020000  O.2  1  MOL  -0.514977 
 7  H1  3.046000  -0.203000  -0.371000  H  1  MOL  0.111818 
 8  H2  2.537000  -0.375000  1.308000  H  1  MOL  0.116842 
 9  H3  2.174000  -1.670000  0.140000  H  1  MOL  0.089295 
 10  H4  -2.490000  -1.063000  1.017000  H  1  MOL  0.012310 
 11  H5  -1.881000  0.556000  1.421000  H  1  MOL  0.012310 
 12  H6  -3.315000  0.376000  0.389000  H  1  MOL  0.012310 
 13  H7  -1.275000  0.963000  -0.968000  H  1  MOL  0.116749 
 14  H8  -1.905000  -0.627000  -1.423000  H  1  MOL  0.116749 
 15  H9  -0.025000  -1.619000  -0.279000  H  1  MOL  0.256949 
@<TRIPOS>BOND
     1     1     2 1   
     2     1     5 am  
     3     1     6 2   
     4     2     7 1   
     5     2     8 1   
     6     2     9 1   
     7     3     4 1   
     8     3    10 1   
     9     3    11 1   
    10     3    12 1   
    11     4     5 1   
    12     4    13 1   
    13     4    14 1   
    14     5    15 1   
@<TRIPOS>SUBSTRUCTURE
     1 MOL         1 TEMP              0 ****  ****    0 ROOT
