@<TRIPOS>MOLECULE
*****
 25 25 0 0 0
SMALL
GASTEIGER

@<TRIPOS>ATOM
      1 C           1.0155    0.6036    1.0210 C.3     1  UNL1        0.0099
      2 N           2.5011    0.5101    1.0154 N.3     1  UNL1        0.1699
      3 C           3.0948    1.7252    1.6151 C.3     1  UNL1        0.0099
      4 S           3.0314   -0.9639    1.6803 S.O2    1  UNL1        0.1112
      5 O           2.5785   -1.0101    3.0493 O.2     1  UNL1        0.1380
      6 O           2.7160   -2.0079    0.7320 O.2     1  UNL1        0.1380
      7 N           4.7062   -0.7408    1.6298 N.pl3   1  UNL1        0.2064
      8 C           5.4362   -1.5356    2.5712 C.ar    1  UNL1        0.0491
      9 C           5.8085   -2.8469    2.2700 C.ar    1  UNL1        0.0379
     10 C           6.4654   -3.6202    3.2338 C.ar    1  UNL1        0.0416
     11 C           6.7426   -3.0796    4.4900 C.ar    1  UNL1        0.0411
     12 CL          7.5515   -4.0313    5.6736 Cl      1  UNL1        0.0835
     13 C           6.3594   -1.7755    4.7963 C.ar    1  UNL1        0.0416
     14 C           5.6908   -1.0086    3.8393 C.ar    1  UNL1        0.0379
     15 H           0.6920    1.5302    0.5357 H       1  UNL1        0.0408
     16 H           0.6316    0.6088    2.0475 H       1  UNL1        0.0408
     17 H           0.5701   -0.2288    0.4694 H       1  UNL1        0.0408
     18 H           2.6650    2.6185    1.1483 H       1  UNL1        0.0408
     19 H           4.1697    1.7641    1.4189 H       1  UNL1        0.0408
     20 H           2.9087    1.7729    2.6911 H       1  UNL1        0.0408
     21 H           4.9965   -0.9013    0.6650 H       1  UNL1        0.1747
     22 H           5.5823   -3.2838    1.3010 H       1  UNL1        0.0637
     23 H           6.7494   -4.6441    3.0042 H       1  UNL1        0.0633
     24 H           6.5664   -1.3544    5.7764 H       1  UNL1        0.0633
     25 H           5.3642   -0.0029    4.0891 H       1  UNL1        0.0637
@<TRIPOS>BOND
     1     1     2    1
     2     2     3    1
     3     2     4    1
     4     4     5    2
     5     4     6    2
     6     4     7    1
     7     7     8    1
     8     8     9   ar
     9     9    10   ar
    10    10    11   ar
    11    11    12    1
    12    11    13   ar
    13    13    14   ar
    14     8    14   ar
    15     1    15    1
    16     1    16    1
    17     1    17    1
    18     3    18    1
    19     3    19    1
    20     3    20    1
    21     7    21    1
    22     9    22    1
    23    10    23    1
    24    13    24    1
    25    14    25    1
