@<TRIPOS>MOLECULE
*****
 25 25 0 0 0
SMALL
GASTEIGER

@<TRIPOS>ATOM
      1 C           0.8782   -1.0646   -1.2440 C.3     1  UNL1        0.0122
      2 C           2.3210   -1.4811   -1.2115 C.2     1  UNL1        0.2102
      3 O           2.6526   -2.6622   -1.2475 O.2     1  UNL1        0.2761
      4 N           3.2126   -0.4284   -1.1775 N.am    1  UNL1        0.3114
      5 C           4.6486   -0.6320   -1.0840 C.3     1  UNL1        0.0372
      6 C           5.1846   -1.2144   -2.3724 C.ar    1  UNL1        0.0192
      7 C           5.4904   -0.4006   -3.4625 C.ar    1  UNL1        0.0068
      8 C           5.7084   -0.9794   -4.7090 C.ar    1  UNL1        0.1713
      9 N           5.6167   -2.3184   -4.8717 N.ar    1  UNL1        0.2064
     10 C           5.6672   -2.9112   -6.2164 C.3     1  UNL1        0.1404
     11 C           5.4120   -3.1310   -3.8127 C.ar    1  UNL1        0.1713
     12 C           5.2165   -2.5997   -2.5484 C.ar    1  UNL1        0.0068
     13 H           0.2534   -1.9519   -1.3874 H       1  UNL1        0.0322
     14 H           0.7027   -0.3800   -2.0781 H       1  UNL1        0.0322
     15 H           0.6075   -0.5893   -0.2988 H       1  UNL1        0.0322
     16 H           2.8479    0.4896   -0.9525 H       1  UNL1        0.1490
     17 H           4.8654   -1.2872   -0.2330 H       1  UNL1        0.0512
     18 H           5.1133    0.3405   -0.8852 H       1  UNL1        0.0512
     19 H           5.5051    0.6827   -3.3602 H       1  UNL1        0.0680
     20 H           5.9096   -0.3745   -5.5881 H       1  UNL1        0.1376
     21 H           5.7668   -2.1256   -6.9686 H       1  UNL1        0.0993
     22 H           4.7282   -3.4511   -6.3736 H       1  UNL1        0.0993
     23 H           6.5217   -3.5898   -6.2557 H       1  UNL1        0.0993
     24 H           5.3556   -4.2003   -3.9957 H       1  UNL1        0.1376
     25 H           4.9815   -3.2684   -1.7203 H       1  UNL1        0.0680
@<TRIPOS>BOND
     1     1     2    1
     2     2     3    2
     3     2     4   am
     4     4     5    1
     5     5     6    1
     6     6     7   ar
     7     7     8   ar
     8     8     9   ar
     9     9    10    1
    10     9    11   ar
    11    11    12   ar
    12     6    12   ar
    13     1    13    1
    14     1    14    1
    15     1    15    1
    16     4    16    1
    17     5    17    1
    18     5    18    1
    19     7    19    1
    20     8    20    1
    21    10    21    1
    22    10    22    1
    23    10    23    1
    24    11    24    1
    25    12    25    1
