@<TRIPOS>MOLECULE
MOL
   40    39     1     0     0
SMALL
No Charge or Current Charge


@<TRIPOS>ATOM
      1 C1          -0.0850     1.1490    -0.2820 C.2        1 MOL       0.000000
      2 C2          -4.4740    -0.3710     0.1320 C.cat      1 MOL       0.000000
      3 C3          -0.3300     3.5650    -0.3200 C.3        1 MOL       0.000000
      4 C4           1.6000     2.6020     0.8700 C.3        1 MOL       0.000000
      5 C5           4.7610    -0.0150    -0.5150 C.3        1 MOL       0.000000
      6 C6          -1.3510    -1.5780     0.4650 C.3        1 MOL       0.000000
      7 C7          -0.0090    -1.4100    -0.2880 C.3        1 MOL       0.000000
      8 C8          -2.5200    -1.7740    -0.5140 C.3        1 MOL       0.000000
      9 C9           0.7450    -0.1110     0.0570 C.3        1 MOL       0.000000
     10 N1          -5.7400    -0.3280     0.5980 N.3        1 MOL       0.000000
     11 N2          -3.8440    -1.5510     0.0900 N.3        1 MOL       0.000000
     12 N3           2.0510    -0.0140    -0.6300 N.3        1 MOL       0.000000
     13 N4           0.3860     2.3570     0.0890 N.am       1 MOL       0.000000
     14 N5          -3.8830     0.7520    -0.2740 N.3        1 MOL       0.000000
     15 O1          -1.1640     1.0240    -0.8990 O.2        1 MOL       0.000000
     16 O2           3.3710    -2.2700    -0.3900 O.2        1 MOL       0.000000
     17 O3           3.1790    -0.6280     1.5530 O.2        1 MOL       0.000000
     18 S1           3.3270    -0.8960     0.1180 S.o2       1 MOL       0.000000
     19 H1          -0.8270     4.0280     0.5410 H          1 MOL       0.000000
     20 H2          -1.0700     3.3080    -1.0760 H          1 MOL       0.000000
     21 H3           0.3830     4.2840    -0.7360 H          1 MOL       0.000000
     22 H4           2.3840     3.0230     0.2290 H          1 MOL       0.000000
     23 H5           1.9790     1.6960     1.3360 H          1 MOL       0.000000
     24 H6           1.3670     3.3270     1.6560 H          1 MOL       0.000000
     25 H7           5.6370    -0.5160    -0.0980 H          1 MOL       0.000000
     26 H8           4.7750    -0.0880    -1.6050 H          1 MOL       0.000000
     27 H9           4.7160     1.0240    -0.1870 H          1 MOL       0.000000
     28 H10         -1.3010    -2.4280     1.1560 H          1 MOL       0.000000
     29 H11         -1.5550    -0.6960     1.0820 H          1 MOL       0.000000
     30 H12          0.6620    -2.2440    -0.0660 H          1 MOL       0.000000
     31 H13         -0.1820    -1.4280    -1.3710 H          1 MOL       0.000000
     32 H14         -2.4220    -1.0850    -1.3540 H          1 MOL       0.000000
     33 H15         -2.5260    -2.7880    -0.9230 H          1 MOL       0.000000
     34 H16          0.9630    -0.1080     1.1300 H          1 MOL       0.000000
     35 H17         -6.3080    -1.1620     0.6460 H          1 MOL       0.000000
     36 H18         -6.1960     0.5520     0.7890 H          1 MOL       0.000000
     37 H19         -4.2480    -2.3040     0.6320 H          1 MOL       0.000000
     38 H20          1.9780    -0.3080    -1.6050 H          1 MOL       0.000000
     39 H21         -4.4440     1.5740    -0.4450 H          1 MOL       0.000000
     40 H22         -2.8740     0.8240    -0.4810 H          1 MOL       0.000000
@<TRIPOS>BOND
     1     1     9 1   
     2     1    13 am  
     3     1    15 2   
     4     2    10 2   
     5     2    11 1   
     6     2    14 1   
     7     3    13 1   
     8     3    19 1   
     9     3    20 1   
    10     3    21 1   
    11     4    13 1   
    12     4    22 1   
    13     4    23 1   
    14     4    24 1   
    15     5    18 1   
    16     5    25 1   
    17     5    26 1   
    18     5    27 1   
    19     6     7 1   
    20     6     8 1   
    21     6    28 1   
    22     6    29 1   
    23     7     9 1   
    24     7    30 1   
    25     7    31 1   
    26     8    11 1   
    27     8    32 1   
    28     8    33 1   
    29     9    12 1   
    30     9    34 1   
    31    10    35 1   
    32    10    36 1   
    33    11    37 1   
    34    12    18 1   
    35    12    38 1   
    36    14    39 1   
    37    14    40 1   
    38    16    18 2   
    39    17    18 2   
@<TRIPOS>SUBSTRUCTURE
     1 MOL         1 TEMP              0 ****  ****    0 ROOT
