@<TRIPOS>MOLECULE
MOL
   40    39     1     0     0
SMALL
No Charge or Current Charge


@<TRIPOS>ATOM
 1  C1  -0.085000  1.149000  -0.282000  C.2  1  MOL  0.636107 
 2  C2  -4.474000  -0.371000  0.132000  C.cat  1  MOL  0.769851 
 3  C3  -0.330000  3.565000  -0.320000  C.3  1  MOL  -0.071473 
 4  C4  1.600000  2.602000  0.870000  C.3  1  MOL  -0.089282 
 5  C5  4.761000  -0.015000  -0.515000  C.3  1  MOL  -0.412669 
 6  C6  -1.351000  -1.578000  0.465000  C.3  1  MOL  -0.069101 
 7  C7  -0.009000  -1.410000  -0.288000  C.3  1  MOL  -0.377967 
 8  C8  -2.520000  -1.774000  -0.514000  C.3  1  MOL  -0.130240 
 9  C9  0.745000  -0.111000  0.057000  C.3  1  MOL  0.087449 
 10  N1  -5.740000  -0.328000  0.598000  N.3  1  MOL  -0.951107 
 11  N2  -3.844000  -1.551000  0.090000  N.3  1  MOL  -0.457611 
 12  N3  2.051000  -0.014000  -0.630000  N.3  1  MOL  -0.497998 
 13  N4  0.386000  2.357000  0.089000  N.am  1  MOL  -0.344286 
 14  N5  -3.883000  0.752000  -0.274000  N.3  1  MOL  -0.805681 
 15  O1  -1.164000  1.024000  -0.899000  O.2  1  MOL  -0.560519 
 16  O2  3.371000  -2.270000  -0.390000  O.2  1  MOL  -0.518639 
 17  O3  3.179000  -0.628000  1.553000  O.2  1  MOL  -0.504040 
 18  S1  3.327000  -0.896000  0.118000  S.o2  1  MOL  0.947437 
 19  H1  -0.827000  4.028000  0.541000  H  1  MOL  0.087465 
 20  H2  -1.070000  3.308000  -1.076000  H  1  MOL  0.084069 
 21  H3  0.383000  4.284000  -0.736000  H  1  MOL  0.088028 
 22  H4  2.384000  3.023000  0.229000  H  1  MOL  0.094118 
 23  H5  1.979000  1.696000  1.336000  H  1  MOL  0.067267 
 24  H6  1.367000  3.327000  1.656000  H  1  MOL  0.084095 
 25  H7  5.637000  -0.516000  -0.098000  H  1  MOL  0.187843 
 26  H8  4.775000  -0.088000  -1.605000  H  1  MOL  0.155917 
 27  H9  4.716000  1.024000  -0.187000  H  1  MOL  0.144151 
 28  H10  -1.301000  -2.428000  1.156000  H  1  MOL  0.095411 
 29  H11  -1.555000  -0.696000  1.082000  H  1  MOL  0.095411 
 30  H12  0.662000  -2.244000  -0.066000  H  1  MOL  0.158981 
 31  H13  -0.182000  -1.428000  -1.371000  H  1  MOL  0.158981 
 32  H14  -2.422000  -1.085000  -1.354000  H  1  MOL  0.127329 
 33  H15  -2.526000  -2.788000  -0.923000  H  1  MOL  0.127329 
 34  H16  0.963000  -0.108000  1.130000  H  1  MOL  0.107900 
 35  H17  -6.308000  -1.162000  0.646000  H  1  MOL  0.471460 
 36  H18  -6.196000  0.552000  0.789000  H  1  MOL  0.471460 
 37  H19  -4.248000  -2.304000  0.632000  H  1  MOL  0.348690 
 38  H20  1.978000  -0.308000  -1.605000  H  1  MOL  0.346457 
 39  H21  -4.444000  1.574000  -0.445000  H  1  MOL  0.423704 
 40  H22  -2.874000  0.824000  -0.481000  H  1  MOL  0.423704 
@<TRIPOS>BOND
     1     1     9 1   
     2     1    13 am  
     3     1    15 2   
     4     2    10 2   
     5     2    11 1   
     6     2    14 1   
     7     3    13 1   
     8     3    19 1   
     9     3    20 1   
    10     3    21 1   
    11     4    13 1   
    12     4    22 1   
    13     4    23 1   
    14     4    24 1   
    15     5    18 1   
    16     5    25 1   
    17     5    26 1   
    18     5    27 1   
    19     6     7 1   
    20     6     8 1   
    21     6    28 1   
    22     6    29 1   
    23     7     9 1   
    24     7    30 1   
    25     7    31 1   
    26     8    11 1   
    27     8    32 1   
    28     8    33 1   
    29     9    12 1   
    30     9    34 1   
    31    10    35 1   
    32    10    36 1   
    33    11    37 1   
    34    12    18 1   
    35    12    38 1   
    36    14    39 1   
    37    14    40 1   
    38    16    18 2   
    39    17    18 2   
@<TRIPOS>SUBSTRUCTURE
     1 MOL         1 TEMP              0 ****  ****    0 ROOT
