@<TRIPOS>MOLECULE
MOL
   34    34     1     0     0
SMALL
No Charge or Current Charge


@<TRIPOS>ATOM
      1 C1           2.2010    -0.3460     0.1390 C.2        1 MOL       0.000000
      2 C2          -4.2900     0.1770    -0.2730 C.3        1 MOL       0.000000
      3 C3          -3.5760    -1.1500    -0.5660 C.3        1 MOL       0.000000
      4 C4          -3.3560     1.3770    -0.4870 C.3        1 MOL       0.000000
      5 C5          -2.2820    -1.2910     0.2580 C.3        1 MOL       0.000000
      6 C6          -2.0610     1.2420     0.3380 C.3        1 MOL       0.000000
      7 C7          -1.3670    -0.0850     0.0220 C.3        1 MOL       0.000000
      8 C8           4.4770    -0.7490    -0.5930 C.3        1 MOL       0.000000
      9 C9           3.7300     1.5830    -0.2050 C.3        1 MOL       0.000000
     10 C10          1.0640     0.6280     0.5560 C.3        1 MOL       0.000000
     11 N1           3.3940     0.1600    -0.1970 N.am       1 MOL       0.000000
     12 N2          -0.1090    -0.2560     0.8680 N.4        1 MOL       0.000000
     13 O1           1.9180    -1.5530     0.1440 O.2        1 MOL       0.000000
     14 H1          -5.1740     0.2750    -0.9120 H          1 MOL       0.000000
     15 H2          -4.6540     0.1770     0.7640 H          1 MOL       0.000000
     16 H3          -4.2310    -1.9990    -0.3480 H          1 MOL       0.000000
     17 H4          -3.3300    -1.2110    -1.6350 H          1 MOL       0.000000
     18 H5          -3.0970     1.4600    -1.5510 H          1 MOL       0.000000
     19 H6          -3.8560     2.3120    -0.2140 H          1 MOL       0.000000
     20 H7          -2.5380    -1.3480     1.3270 H          1 MOL       0.000000
     21 H8          -1.7610    -2.2210    -0.0030 H          1 MOL       0.000000
     22 H9          -1.3970     2.0920     0.1390 H          1 MOL       0.000000
     23 H10         -2.3090     1.2680     1.4100 H          1 MOL       0.000000
     24 H11         -1.0040    -0.0930    -1.0130 H          1 MOL       0.000000
     25 H12          4.7960    -0.5170    -1.6140 H          1 MOL       0.000000
     26 H13          4.1180    -1.7750    -0.5440 H          1 MOL       0.000000
     27 H14          5.3280    -0.6220     0.0840 H          1 MOL       0.000000
     28 H15          4.5560     1.7740     0.4890 H          1 MOL       0.000000
     29 H16          2.8830     2.2020     0.0890 H          1 MOL       0.000000
     30 H17          4.0450     1.8830    -1.2100 H          1 MOL       0.000000
     31 H18          1.3220     1.2190     1.4370 H          1 MOL       0.000000
     32 H19          0.7910     1.3080    -0.2530 H          1 MOL       0.000000
     33 H20         -0.3630    -0.1880     1.8580 H          1 MOL       0.000000
     34 H21          0.3060    -1.2150     0.7060 H          1 MOL       0.000000
@<TRIPOS>BOND
     1     1    10 1   
     2     1    11 am  
     3     1    13 2   
     4     2     3 1   
     5     2     4 1   
     6     2    14 1   
     7     2    15 1   
     8     3     5 1   
     9     3    16 1   
    10     3    17 1   
    11     4     6 1   
    12     4    18 1   
    13     4    19 1   
    14     5     7 1   
    15     5    20 1   
    16     5    21 1   
    17     6     7 1   
    18     6    22 1   
    19     6    23 1   
    20     7    12 1   
    21     7    24 1   
    22     8    11 1   
    23     8    25 1   
    24     8    26 1   
    25     8    27 1   
    26     9    11 1   
    27     9    28 1   
    28     9    29 1   
    29     9    30 1   
    30    10    12 1   
    31    10    31 1   
    32    10    32 1   
    33    12    33 1   
    34    12    34 1   
@<TRIPOS>SUBSTRUCTURE
     1 MOL         1 TEMP              0 ****  ****    0 ROOT
