@<TRIPOS>MOLECULE
MOL
   34    34     1     0     0
SMALL
No Charge or Current Charge


@<TRIPOS>ATOM
 1  C1  2.201000  -0.346000  0.139000  C.2  1  MOL  0.636107 
 2  C2  -4.290000  0.177000  -0.273000  C.3  1  MOL  -0.022832 
 3  C3  -3.576000  -1.150000  -0.566000  C.3  1  MOL  -0.088705 
 4  C4  -3.356000  1.377000  -0.487000  C.3  1  MOL  -0.088705 
 5  C5  -2.282000  -1.291000  0.258000  C.3  1  MOL  -0.005938 
 6  C6  -2.061000  1.242000  0.338000  C.3  1  MOL  -0.005938 
 7  C7  -1.367000  -0.085000  0.022000  C.3  1  MOL  0.190148 
 8  C8  4.477000  -0.749000  -0.593000  C.3  1  MOL  -0.071473 
 9  C9  3.730000  1.583000  -0.205000  C.3  1  MOL  -0.089282 
 10  C10  1.064000  0.628000  0.556000  C.3  1  MOL  0.597133 
 11  N1  3.394000  0.160000  -0.197000  N.am  1  MOL  -0.344286 
 12  N2  -0.109000  -0.256000  0.868000  N.4  1  MOL  -1.164611 
 13  O1  1.918000  -1.553000  0.144000  O.2  1  MOL  -0.560519 
 14  H1  -5.174000  0.275000  -0.912000  H  1  MOL  0.047807 
 15  H2  -4.654000  0.177000  0.764000  H  1  MOL  0.047807 
 16  H3  -4.231000  -1.999000  -0.348000  H  1  MOL  0.049700 
 17  H4  -3.330000  -1.211000  -1.635000  H  1  MOL  0.049700 
 18  H5  -3.097000  1.460000  -1.551000  H  1  MOL  0.049700 
 19  H6  -3.856000  2.312000  -0.214000  H  1  MOL  0.049700 
 20  H7  -2.538000  -1.348000  1.327000  H  1  MOL  0.051478 
 21  H8  -1.761000  -2.221000  -0.003000  H  1  MOL  0.051478 
 22  H9  -1.397000  2.092000  0.139000  H  1  MOL  0.051478 
 23  H10  -2.309000  1.268000  1.410000  H  1  MOL  0.051478 
 24  H11  -1.004000  -0.093000  -1.013000  H  1  MOL  0.079366 
 25  H12  4.796000  -0.517000  -1.614000  H  1  MOL  0.087465 
 26  H13  4.118000  -1.775000  -0.544000  H  1  MOL  0.084069 
 27  H14  5.328000  -0.622000  0.084000  H  1  MOL  0.088028 
 28  H15  4.556000  1.774000  0.489000  H  1  MOL  0.094118 
 29  H16  2.883000  2.202000  0.089000  H  1  MOL  0.067267 
 30  H17  4.045000  1.883000  -1.210000  H  1  MOL  0.084095 
 31  H18  1.322000  1.219000  1.437000  H  1  MOL  -0.019752 
 32  H19  0.791000  1.308000  -0.253000  H  1  MOL  -0.019752 
 33  H20  -0.363000  -0.188000  1.858000  H  1  MOL  0.486837 
 34  H21  0.306000  -1.215000  0.706000  H  1  MOL  0.486837 
@<TRIPOS>BOND
     1     1    10 1   
     2     1    11 am  
     3     1    13 2   
     4     2     3 1   
     5     2     4 1   
     6     2    14 1   
     7     2    15 1   
     8     3     5 1   
     9     3    16 1   
    10     3    17 1   
    11     4     6 1   
    12     4    18 1   
    13     4    19 1   
    14     5     7 1   
    15     5    20 1   
    16     5    21 1   
    17     6     7 1   
    18     6    22 1   
    19     6    23 1   
    20     7    12 1   
    21     7    24 1   
    22     8    11 1   
    23     8    25 1   
    24     8    26 1   
    25     8    27 1   
    26     9    11 1   
    27     9    28 1   
    28     9    29 1   
    29     9    30 1   
    30    10    12 1   
    31    10    31 1   
    32    10    32 1   
    33    12    33 1   
    34    12    34 1   
@<TRIPOS>SUBSTRUCTURE
     1 MOL         1 TEMP              0 ****  ****    0 ROOT
