@<TRIPOS>MOLECULE
MOL
   23    22     1     0     0
SMALL
No Charge or Current Charge


@<TRIPOS>ATOM
 1  C1  1.592000  -0.405000  -0.218000  C.2  1  MOL  0.636107 
 2  C2  3.969000  -0.668000  0.233000  C.3  1  MOL  -0.071473 
 3  C3  3.041000  1.610000  0.093000  C.3  1  MOL  -0.089282 
 4  C4  -3.297000  0.708000  -0.958000  C.3  1  MOL  -0.412669 
 5  C5  0.386000  0.521000  -0.469000  C.3  1  MOL  -0.270138 
 6  N1  -0.791000  -0.313000  -0.698000  N.3  1  MOL  -0.497998 
 7  N2  2.806000  0.178000  -0.004000  N.am  1  MOL  -0.344286 
 8  O1  1.431000  -1.625000  -0.240000  O.2  1  MOL  -0.560519 
 9  O2  -1.889000  0.981000  1.257000  O.2  1  MOL  -0.518639 
 10  O3  -2.709000  -1.352000  0.597000  O.2  1  MOL  -0.504040 
 11  S1  -2.174000  -0.037000  0.236000  S.o2  1  MOL  0.947437 
 12  H1  4.760000  -0.433000  -0.489000  H  1  MOL  0.087465 
 13  H2  3.670000  -1.709000  0.124000  H  1  MOL  0.084069 
 14  H3  4.362000  -0.505000  1.245000  H  1  MOL  0.088028 
 15  H4  3.385000  1.876000  1.102000  H  1  MOL  0.094118 
 16  H5  2.139000  2.180000  -0.120000  H  1  MOL  0.067267 
 17  H6  3.816000  1.914000  -0.622000  H  1  MOL  0.084095 
 18  H7  -4.231000  0.920000  -0.433000  H  1  MOL  0.187843 
 19  H8  -2.855000  1.634000  -1.333000  H  1  MOL  0.155917 
 20  H9  -3.463000  -0.000000  -1.770000  H  1  MOL  0.144151 
 21  H10  0.222000  1.181000  0.390000  H  1  MOL  0.173046 
 22  H11  0.582000  1.150000  -1.347000  H  1  MOL  0.173046 
 23  H12  -0.527000  -1.302000  -0.615000  H  1  MOL  0.346457 
@<TRIPOS>BOND
     1     1     5 1   
     2     1     7 am  
     3     1     8 2   
     4     2     7 1   
     5     2    12 1   
     6     2    13 1   
     7     2    14 1   
     8     3     7 1   
     9     3    15 1   
    10     3    16 1   
    11     3    17 1   
    12     4    11 1   
    13     4    18 1   
    14     4    19 1   
    15     4    20 1   
    16     5     6 1   
    17     5    21 1   
    18     5    22 1   
    19     6    11 1   
    20     6    23 1   
    21     9    11 2   
    22    10    11 2   
@<TRIPOS>SUBSTRUCTURE
     1 MOL         1 TEMP              0 ****  ****    0 ROOT
