@<TRIPOS>MOLECULE
MOL
   23    22     1     0     0
SMALL
No Charge or Current Charge


@<TRIPOS>ATOM
      1 C1           1.5920    -0.4050    -0.2180 C.2        1 MOL       0.000000
      2 C2           3.9690    -0.6680     0.2330 C.3        1 MOL       0.000000
      3 C3           3.0410     1.6100     0.0930 C.3        1 MOL       0.000000
      4 C4          -3.2970     0.7080    -0.9580 C.3        1 MOL       0.000000
      5 C5           0.3860     0.5210    -0.4690 C.3        1 MOL       0.000000
      6 N1          -0.7910    -0.3130    -0.6980 N.3        1 MOL       0.000000
      7 N2           2.8060     0.1780    -0.0040 N.am       1 MOL       0.000000
      8 O1           1.4310    -1.6250    -0.2400 O.2        1 MOL       0.000000
      9 O2          -1.8890     0.9810     1.2570 O.2        1 MOL       0.000000
     10 O3          -2.7090    -1.3520     0.5970 O.2        1 MOL       0.000000
     11 S1          -2.1740    -0.0370     0.2360 S.o2       1 MOL       0.000000
     12 H1           4.7600    -0.4330    -0.4890 H          1 MOL       0.000000
     13 H2           3.6700    -1.7090     0.1240 H          1 MOL       0.000000
     14 H3           4.3620    -0.5050     1.2450 H          1 MOL       0.000000
     15 H4           3.3850     1.8760     1.1020 H          1 MOL       0.000000
     16 H5           2.1390     2.1800    -0.1200 H          1 MOL       0.000000
     17 H6           3.8160     1.9140    -0.6220 H          1 MOL       0.000000
     18 H7          -4.2310     0.9200    -0.4330 H          1 MOL       0.000000
     19 H8          -2.8550     1.6340    -1.3330 H          1 MOL       0.000000
     20 H9          -3.4630    -0.0000    -1.7700 H          1 MOL       0.000000
     21 H10          0.2220     1.1810     0.3900 H          1 MOL       0.000000
     22 H11          0.5820     1.1500    -1.3470 H          1 MOL       0.000000
     23 H12         -0.5270    -1.3020    -0.6150 H          1 MOL       0.000000
@<TRIPOS>BOND
     1     1     5 1   
     2     1     7 am  
     3     1     8 2   
     4     2     7 1   
     5     2    12 1   
     6     2    13 1   
     7     2    14 1   
     8     3     7 1   
     9     3    15 1   
    10     3    16 1   
    11     3    17 1   
    12     4    11 1   
    13     4    18 1   
    14     4    19 1   
    15     4    20 1   
    16     5     6 1   
    17     5    21 1   
    18     5    22 1   
    19     6    11 1   
    20     6    23 1   
    21     9    11 2   
    22    10    11 2   
@<TRIPOS>SUBSTRUCTURE
     1 MOL         1 TEMP              0 ****  ****    0 ROOT
