@<TRIPOS>MOLECULE
MOL
   23    23     1     0     0
SMALL
No Charge or Current Charge


@<TRIPOS>ATOM
      1 C1          -0.5860    -0.7050    -0.5580 C.ar       1 MOL       0.000000
      2 C2          -1.3600     1.4870     0.0590 C.ar       1 MOL       0.000000
      3 C3          -1.8430    -1.2340    -0.2880 C.ar       1 MOL       0.000000
      4 C4          -2.6280     0.9700     0.3320 C.ar       1 MOL       0.000000
      5 C5          -0.3230     0.6650    -0.3860 C.ar       1 MOL       0.000000
      6 C6          -2.8710    -0.3940     0.1590 C.ar       1 MOL       0.000000
      7 C7           2.9120    -0.2590     0.0470 C.2        1 MOL       0.000000
      8 C8           3.8390    -0.6360     1.1950 C.3        1 MOL       0.000000
      9 C9           1.0580     1.2220    -0.6710 C.3        1 MOL       0.000000
     10 N1           2.0770     0.7980     0.2900 N.am       1 MOL       0.000000
     11 O1           2.9310    -0.8600    -1.0210 O.2        1 MOL       0.000000
     12 O2          -4.0880    -0.9680     0.4070 O.3        1 MOL       0.000000
     13 H1           0.2090    -1.3550    -0.9110 H          1 MOL       0.000000
     14 H2          -1.1830     2.5530     0.1940 H          1 MOL       0.000000
     15 H3          -2.0510    -2.2910    -0.4240 H          1 MOL       0.000000
     16 H4          -3.4250     1.6280     0.6760 H          1 MOL       0.000000
     17 H5           3.5890    -1.6470     1.5330 H          1 MOL       0.000000
     18 H6           4.8660    -0.6620     0.8200 H          1 MOL       0.000000
     19 H7           3.7870     0.0470     2.0490 H          1 MOL       0.000000
     20 H8           1.4190     0.8850    -1.6460 H          1 MOL       0.000000
     21 H9           1.0270     2.3170    -0.6810 H          1 MOL       0.000000
     22 H10          2.0040     1.1470     1.2360 H          1 MOL       0.000000
     23 H11         -4.7070    -0.2800     0.6980 H          1 MOL       0.000000
@<TRIPOS>BOND
     1     1     3 ar  
     2     1     5 ar  
     3     1    13 1   
     4     2     4 ar  
     5     2     5 ar  
     6     2    14 1   
     7     3     6 ar  
     8     3    15 1   
     9     4     6 ar  
    10     4    16 1   
    11     5     9 1   
    12     6    12 1   
    13     7     8 1   
    14     7    10 am  
    15     7    11 2   
    16     8    17 1   
    17     8    18 1   
    18     8    19 1   
    19     9    10 1   
    20     9    20 1   
    21     9    21 1   
    22    10    22 1   
    23    12    23 1   
@<TRIPOS>SUBSTRUCTURE
     1 MOL         1 TEMP              0 ****  ****    0 ROOT
