@<TRIPOS>MOLECULE
MOL
   23    23     1     0     0
SMALL
No Charge or Current Charge


@<TRIPOS>ATOM
 1  C1  -0.586000  -0.705000  -0.558000  C.ar  1  MOL  -0.136188 
 2  C2  -1.360000  1.487000  0.059000  C.ar  1  MOL  -0.136188 
 3  C3  -1.843000  -1.234000  -0.288000  C.ar  1  MOL  -0.308606 
 4  C4  -2.628000  0.970000  0.332000  C.ar  1  MOL  -0.308606 
 5  C5  -0.323000  0.665000  -0.386000  C.ar  1  MOL  0.029179 
 6  C6  -2.871000  -0.394000  0.159000  C.ar  1  MOL  0.378652 
 7  C7  2.912000  -0.259000  0.047000  C.2  1  MOL  0.419930 
 8  C8  3.839000  -0.636000  1.195000  C.3  1  MOL  -0.016420 
 9  C9  1.058000  1.222000  -0.671000  C.3  1  MOL  0.038361 
 10  N1  2.077000  0.798000  0.290000  N.am  1  MOL  -0.425469 
 11  O1  2.931000  -0.860000  -1.021000  O.2  1  MOL  -0.497640 
 12  O2  -4.088000  -0.968000  0.407000  O.3  1  MOL  -0.597310 
 13  H1  0.209000  -1.355000  -0.911000  H  1  MOL  0.145520 
 14  H2  -1.183000  2.553000  0.194000  H  1  MOL  0.145520 
 15  H3  -2.051000  -2.291000  -0.424000  H  1  MOL  0.189995 
 16  H4  -3.425000  1.628000  0.676000  H  1  MOL  0.189995 
 17  H5  3.589000  -1.647000  1.533000  H  1  MOL  0.031380 
 18  H6  4.866000  -0.662000  0.820000  H  1  MOL  0.031380 
 19  H7  3.787000  0.047000  2.049000  H  1  MOL  0.031380 
 20  H8  1.419000  0.885000  -1.646000  H  1  MOL  0.062167 
 21  H9  1.027000  2.317000  -0.681000  H  1  MOL  0.062167 
 22  H10  2.004000  1.147000  1.236000  H  1  MOL  0.260405 
 23  H11  -4.707000  -0.280000  0.698000  H  1  MOL  0.410396 
@<TRIPOS>BOND
     1     1     3 ar  
     2     1     5 ar  
     3     1    13 1   
     4     2     4 ar  
     5     2     5 ar  
     6     2    14 1   
     7     3     6 ar  
     8     3    15 1   
     9     4     6 ar  
    10     4    16 1   
    11     5     9 1   
    12     6    12 1   
    13     7     8 1   
    14     7    10 am  
    15     7    11 2   
    16     8    17 1   
    17     8    18 1   
    18     8    19 1   
    19     9    10 1   
    20     9    20 1   
    21     9    21 1   
    22    10    22 1   
    23    12    23 1   
@<TRIPOS>SUBSTRUCTURE
     1 MOL         1 TEMP              0 ****  ****    0 ROOT
