@<TRIPOS>MOLECULE
MOL
   47    47     1     0     0
SMALL
No Charge or Current Charge


@<TRIPOS>ATOM
      1 C1          -3.1870    -0.3540     0.0220 C.2        1 MOL       0.000000
      2 C2           1.3280    -1.5270    -0.4860 C.2        1 MOL       0.000000
      3 C3           3.2120     3.0040    -0.1270 C.3        1 MOL       0.000000
      4 C4           2.9320     2.4180     1.2630 C.3        1 MOL       0.000000
      5 C5           1.9610     2.9450    -1.0150 C.3        1 MOL       0.000000
      6 C6           2.3710     0.9890     1.1740 C.3        1 MOL       0.000000
      7 C7           1.4020     1.5150    -1.1130 C.3        1 MOL       0.000000
      8 C8           1.1060     0.9390     0.2890 C.3        1 MOL       0.000000
      9 C9          -5.5760    -0.4870     0.4140 C.3        1 MOL       0.000000
     10 C10         -4.5300     1.7380     0.1080 C.3        1 MOL       0.000000
     11 C11          3.0380    -3.2330    -0.6370 C.3        1 MOL       0.000000
     12 C12          2.4130    -2.4150     1.6010 C.3        1 MOL       0.000000
     13 C13         -1.9030     0.4810    -0.2410 C.3        1 MOL       0.000000
     14 C14          0.4760    -0.4790     0.2830 C.3        1 MOL       0.000000
     15 N1          -4.3540     0.2890     0.1720 N.am       1 MOL       0.000000
     16 N2           2.2190    -2.3080     0.1570 N.am       1 MOL       0.000000
     17 N3          -0.8290    -0.5230    -0.4960 N.4        1 MOL       0.000000
     18 O1          -3.0440    -1.5820     0.0890 O.2        1 MOL       0.000000
     19 O2           1.1350    -1.5700    -1.7090 O.2        1 MOL       0.000000
     20 H1           3.5620     4.0390    -0.0360 H          1 MOL       0.000000
     21 H2           4.0250     2.4400    -0.6050 H          1 MOL       0.000000
     22 H3           3.8460     2.4110     1.8690 H          1 MOL       0.000000
     23 H4           2.2120     3.0560     1.7940 H          1 MOL       0.000000
     24 H5           1.1900     3.6120    -0.6040 H          1 MOL       0.000000
     25 H6           2.1880     3.3140    -2.0210 H          1 MOL       0.000000
     26 H7           3.1380     0.3270     0.7500 H          1 MOL       0.000000
     27 H8           2.1440     0.6170     2.1810 H          1 MOL       0.000000
     28 H9           0.4970     1.5220    -1.7360 H          1 MOL       0.000000
     29 H10          2.1220     0.8710    -1.6310 H          1 MOL       0.000000
     30 H11          0.3700     1.5990     0.7740 H          1 MOL       0.000000
     31 H12         -6.0050    -0.2090     1.3820 H          1 MOL       0.000000
     32 H13         -5.3320    -1.5470     0.4110 H          1 MOL       0.000000
     33 H14         -6.3070    -0.2730    -0.3730 H          1 MOL       0.000000
     34 H15         -5.1720     2.0030    -0.7400 H          1 MOL       0.000000
     35 H16         -3.5790     2.2580    -0.0010 H          1 MOL       0.000000
     36 H17         -5.0090     2.0910     1.0280 H          1 MOL       0.000000
     37 H18          4.0930    -3.0940    -0.3800 H          1 MOL       0.000000
     38 H19          2.8830    -3.0310    -1.6950 H          1 MOL       0.000000
     39 H20          2.7530    -4.2670    -0.4160 H          1 MOL       0.000000
     40 H21          2.2410    -3.4510     1.9150 H          1 MOL       0.000000
     41 H22          1.7330    -1.7700     2.1540 H          1 MOL       0.000000
     42 H23          3.4400    -2.1390     1.8650 H          1 MOL       0.000000
     43 H24         -1.9920     1.1420    -1.1040 H          1 MOL       0.000000
     44 H25         -1.6470     1.0810     0.6330 H          1 MOL       0.000000
     45 H26          0.2250    -0.7800     1.3010 H          1 MOL       0.000000
     46 H27         -1.3300    -1.4280    -0.3020 H          1 MOL       0.000000
     47 H28         -0.5240    -0.5800    -1.4840 H          1 MOL       0.000000
@<TRIPOS>BOND
     1     1    13 1   
     2     1    15 am  
     3     1    18 2   
     4     2    14 1   
     5     2    16 am  
     6     2    19 2   
     7     3     4 1   
     8     3     5 1   
     9     3    20 1   
    10     3    21 1   
    11     4     6 1   
    12     4    22 1   
    13     4    23 1   
    14     5     7 1   
    15     5    24 1   
    16     5    25 1   
    17     6     8 1   
    18     6    26 1   
    19     6    27 1   
    20     7     8 1   
    21     7    28 1   
    22     7    29 1   
    23     8    14 1   
    24     8    30 1   
    25     9    15 1   
    26     9    31 1   
    27     9    32 1   
    28     9    33 1   
    29    10    15 1   
    30    10    34 1   
    31    10    35 1   
    32    10    36 1   
    33    11    16 1   
    34    11    37 1   
    35    11    38 1   
    36    11    39 1   
    37    12    16 1   
    38    12    40 1   
    39    12    41 1   
    40    12    42 1   
    41    13    17 1   
    42    13    43 1   
    43    13    44 1   
    44    14    17 1   
    45    14    45 1   
    46    17    46 1   
    47    17    47 1   
@<TRIPOS>SUBSTRUCTURE
     1 MOL         1 TEMP              0 ****  ****    0 ROOT
