@<TRIPOS>MOLECULE
MOL
   47    47     1     0     0
SMALL
No Charge or Current Charge


@<TRIPOS>ATOM
 1  C1  -3.187000  -0.354000  0.022000  C.2  1  MOL  0.636107 
 2  C2  1.328000  -1.527000  -0.486000  C.2  1  MOL  0.636107 
 3  C3  3.212000  3.004000  -0.127000  C.3  1  MOL  -0.045365 
 4  C4  2.932000  2.418000  1.263000  C.3  1  MOL  -0.096573 
 5  C5  1.961000  2.945000  -1.015000  C.3  1  MOL  -0.096573 
 6  C6  2.371000  0.989000  1.174000  C.3  1  MOL  -0.037877 
 7  C7  1.402000  1.515000  -1.113000  C.3  1  MOL  -0.037877 
 8  C8  1.106000  0.939000  0.289000  C.3  1  MOL  0.006702 
 9  C9  -5.576000  -0.487000  0.414000  C.3  1  MOL  -0.071473 
 10  C10  -4.530000  1.738000  0.108000  C.3  1  MOL  -0.089282 
 11  C11  3.038000  -3.233000  -0.637000  C.3  1  MOL  -0.071473 
 12  C12  2.413000  -2.415000  1.601000  C.3  1  MOL  -0.089282 
 13  C13  -1.903000  0.481000  -0.241000  C.3  1  MOL  0.659252 
 14  C14  0.476000  -0.479000  0.283000  C.3  1  MOL  0.501435 
 15  N1  -4.354000  0.289000  0.172000  N.am  1  MOL  -0.344286 
 16  N2  2.219000  -2.308000  0.157000  N.am  1  MOL  -0.344286 
 17  N3  -0.829000  -0.523000  -0.496000  N.4  1  MOL  -1.397224 
 18  O1  -3.044000  -1.582000  0.089000  O.2  1  MOL  -0.560519 
 19  O2  1.135000  -1.570000  -1.709000  O.2  1  MOL  -0.560519 
 20  H1  3.562000  4.039000  -0.036000  H  1  MOL  0.048234 
 21  H2  4.025000  2.440000  -0.605000  H  1  MOL  0.048234 
 22  H3  3.846000  2.411000  1.869000  H  1  MOL  0.053107 
 23  H4  2.212000  3.056000  1.794000  H  1  MOL  0.053107 
 24  H5  1.190000  3.612000  -0.604000  H  1  MOL  0.053107 
 25  H6  2.188000  3.314000  -2.021000  H  1  MOL  0.053107 
 26  H7  3.138000  0.327000  0.750000  H  1  MOL  0.026478 
 27  H8  2.144000  0.617000  2.181000  H  1  MOL  0.026478 
 28  H9  0.497000  1.522000  -1.736000  H  1  MOL  0.026478 
 29  H10  2.122000  0.871000  -1.631000  H  1  MOL  0.026478 
 30  H11  0.370000  1.599000  0.774000  H  1  MOL  0.017045 
 31  H12  -6.005000  -0.209000  1.382000  H  1  MOL  0.087465 
 32  H13  -5.332000  -1.547000  0.411000  H  1  MOL  0.084069 
 33  H14  -6.307000  -0.273000  -0.373000  H  1  MOL  0.088028 
 34  H15  -5.172000  2.003000  -0.740000  H  1  MOL  0.094118 
 35  H16  -3.579000  2.258000  -0.001000  H  1  MOL  0.067267 
 36  H17  -5.009000  2.091000  1.028000  H  1  MOL  0.084095 
 37  H18  4.093000  -3.094000  -0.380000  H  1  MOL  0.087465 
 38  H19  2.883000  -3.031000  -1.695000  H  1  MOL  0.084069 
 39  H20  2.753000  -4.267000  -0.416000  H  1  MOL  0.088028 
 40  H21  2.241000  -3.451000  1.915000  H  1  MOL  0.094118 
 41  H22  1.733000  -1.770000  2.154000  H  1  MOL  0.067267 
 42  H23  3.440000  -2.139000  1.865000  H  1  MOL  0.084095 
 43  H24  -1.992000  1.142000  -1.104000  H  1  MOL  -0.037741 
 44  H25  -1.647000  1.081000  0.633000  H  1  MOL  -0.037741 
 45  H26  0.225000  -0.780000  1.301000  H  1  MOL  -0.008587 
 46  H27  -1.330000  -1.428000  -0.302000  H  1  MOL  0.522570 
 47  H28  -0.524000  -0.580000  -1.484000  H  1  MOL  0.522570 
@<TRIPOS>BOND
     1     1    13 1   
     2     1    15 am  
     3     1    18 2   
     4     2    14 1   
     5     2    16 am  
     6     2    19 2   
     7     3     4 1   
     8     3     5 1   
     9     3    20 1   
    10     3    21 1   
    11     4     6 1   
    12     4    22 1   
    13     4    23 1   
    14     5     7 1   
    15     5    24 1   
    16     5    25 1   
    17     6     8 1   
    18     6    26 1   
    19     6    27 1   
    20     7     8 1   
    21     7    28 1   
    22     7    29 1   
    23     8    14 1   
    24     8    30 1   
    25     9    15 1   
    26     9    31 1   
    27     9    32 1   
    28     9    33 1   
    29    10    15 1   
    30    10    34 1   
    31    10    35 1   
    32    10    36 1   
    33    11    16 1   
    34    11    37 1   
    35    11    38 1   
    36    11    39 1   
    37    12    16 1   
    38    12    40 1   
    39    12    41 1   
    40    12    42 1   
    41    13    17 1   
    42    13    43 1   
    43    13    44 1   
    44    14    17 1   
    45    14    45 1   
    46    17    46 1   
    47    17    47 1   
@<TRIPOS>SUBSTRUCTURE
     1 MOL         1 TEMP              0 ****  ****    0 ROOT
