@<TRIPOS>MOLECULE
MOL
   22    22     1     0     0
SMALL
No Charge or Current Charge


@<TRIPOS>ATOM
 1  C1  -2.252000  1.945000  0.414000  C.ar  1  MOL  -0.251725 
 2  C2  -0.925000  2.172000  0.041000  C.ar  1  MOL  -0.096472 
 3  C3  -2.777000  0.654000  0.407000  C.ar  1  MOL  -0.030340 
 4  C4  -0.628000  -0.194000  -0.361000  C.ar  1  MOL  -0.042933 
 5  C5  -0.105000  1.108000  -0.347000  C.ar  1  MOL  0.041872 
 6  C6  -1.951000  -0.402000  0.017000  C.ar  1  MOL  -0.054004 
 7  C7  2.880000  -0.451000  0.001000  C.2  1  MOL  0.510929 
 8  C8  3.805000  -0.925000  1.112000  C.3  1  MOL  -0.313908 
 9  C9  1.342000  1.339000  -0.745000  C.3  1  MOL  -0.133940 
 10  N1  2.308000  0.779000  0.195000  N.am  1  MOL  -0.353167 
 11  O1  2.673000  -1.125000  -1.002000  O.2  1  MOL  -0.514977 
 12  Cl1  -2.605000  -2.037000  -0.002000  Cl  1  MOL  -0.120792 
 13  H1  -2.883000  2.778000  0.713000  H  1  MOL  0.170492 
 14  H2  -0.527000  3.183000  0.048000  H  1  MOL  0.133403 
 15  H3  -3.805000  0.465000  0.695000  H  1  MOL  0.133879 
 16  H4  -0.004000  -1.026000  -0.669000  H  1  MOL  0.133165 
 17  H5  3.379000  -1.825000  1.566000  H  1  MOL  0.111818 
 18  H6  4.766000  -1.205000  0.670000  H  1  MOL  0.116842 
 19  H7  3.976000  -0.179000  1.894000  H  1  MOL  0.089295 
 20  H8  1.554000  0.864000  -1.707000  H  1  MOL  0.106807 
 21  H9  1.535000  2.413000  -0.846000  H  1  MOL  0.106807 
 22  H10  2.406000  1.224000  1.097000  H  1  MOL  0.256949 
@<TRIPOS>BOND
     1     1     2 ar  
     2     1     3 ar  
     3     1    13 1   
     4     2     5 ar  
     5     2    14 1   
     6     3     6 ar  
     7     3    15 1   
     8     4     5 ar  
     9     4     6 ar  
    10     4    16 1   
    11     5     9 1   
    12     6    12 1   
    13     7     8 1   
    14     7    10 am  
    15     7    11 2   
    16     8    17 1   
    17     8    18 1   
    18     8    19 1   
    19     9    10 1   
    20     9    20 1   
    21     9    21 1   
    22    10    22 1   
@<TRIPOS>SUBSTRUCTURE
     1 MOL         1 TEMP              0 ****  ****    0 ROOT
