@<TRIPOS>MOLECULE
MOL
   22    22     1     0     0
SMALL
No Charge or Current Charge


@<TRIPOS>ATOM
      1 C1          -2.2520     1.9450     0.4140 C.ar       1 MOL       0.000000
      2 C2          -0.9250     2.1720     0.0410 C.ar       1 MOL       0.000000
      3 C3          -2.7770     0.6540     0.4070 C.ar       1 MOL       0.000000
      4 C4          -0.6280    -0.1940    -0.3610 C.ar       1 MOL       0.000000
      5 C5          -0.1050     1.1080    -0.3470 C.ar       1 MOL       0.000000
      6 C6          -1.9510    -0.4020     0.0170 C.ar       1 MOL       0.000000
      7 C7           2.8800    -0.4510     0.0010 C.2        1 MOL       0.000000
      8 C8           3.8050    -0.9250     1.1120 C.3        1 MOL       0.000000
      9 C9           1.3420     1.3390    -0.7450 C.3        1 MOL       0.000000
     10 N1           2.3080     0.7790     0.1950 N.am       1 MOL       0.000000
     11 O1           2.6730    -1.1250    -1.0020 O.2        1 MOL       0.000000
     12 Cl1         -2.6050    -2.0370    -0.0020 Cl         1 MOL       0.000000
     13 H1          -2.8830     2.7780     0.7130 H          1 MOL       0.000000
     14 H2          -0.5270     3.1830     0.0480 H          1 MOL       0.000000
     15 H3          -3.8050     0.4650     0.6950 H          1 MOL       0.000000
     16 H4          -0.0040    -1.0260    -0.6690 H          1 MOL       0.000000
     17 H5           3.3790    -1.8250     1.5660 H          1 MOL       0.000000
     18 H6           4.7660    -1.2050     0.6700 H          1 MOL       0.000000
     19 H7           3.9760    -0.1790     1.8940 H          1 MOL       0.000000
     20 H8           1.5540     0.8640    -1.7070 H          1 MOL       0.000000
     21 H9           1.5350     2.4130    -0.8460 H          1 MOL       0.000000
     22 H10          2.4060     1.2240     1.0970 H          1 MOL       0.000000
@<TRIPOS>BOND
     1     1     2 ar  
     2     1     3 ar  
     3     1    13 1   
     4     2     5 ar  
     5     2    14 1   
     6     3     6 ar  
     7     3    15 1   
     8     4     5 ar  
     9     4     6 ar  
    10     4    16 1   
    11     5     9 1   
    12     6    12 1   
    13     7     8 1   
    14     7    10 am  
    15     7    11 2   
    16     8    17 1   
    17     8    18 1   
    18     8    19 1   
    19     9    10 1   
    20     9    20 1   
    21     9    21 1   
    22    10    22 1   
@<TRIPOS>SUBSTRUCTURE
     1 MOL         1 TEMP              0 ****  ****    0 ROOT
