@<TRIPOS>MOLECULE
*****
 33 33 0 0 0
SMALL
GASTEIGER

@<TRIPOS>ATOM
      1 C           1.2295    0.0223    2.1835 C.3     1  UNL1        0.0001
      2 N           2.6374   -0.0564    1.8722 N.am    1  UNL1        0.3170
      3 C           3.2298    0.8930    1.0630 C.2     1  UNL1        0.2317
      4 O           2.5877    1.7546    0.4635 O.2     1  UNL1        0.2740
      5 C           4.7696    0.8427    1.0172 C.3     1  UNL1        0.1083
      6 H           5.1272   -0.1652    1.2567 H       1  UNL1        0.0576
      7 C           5.2380    1.2334   -0.4099 C.3     1  UNL1        0.0022
      8 C           6.7382    1.1610   -0.6230 C.ar    1  UNL1        0.0454
      9 C           7.2923    0.2659   -1.5465 C.ar    1  UNL1        0.0585
     10 C           8.6801    0.1610   -1.6848 C.ar    1  UNL1        0.0615
     11 C           9.5273    0.9504   -0.9087 C.ar    1  UNL1        0.0617
     12 C           8.9895    1.8802   -0.0276 C.ar    1  UNL1        0.0615
     13 C           7.6068    1.9981    0.0944 C.ar    1  UNL1        0.0585
     14 N           5.3100    1.8454    1.9959 N.3     1  UNL1        0.1826
     15 S           5.1405    1.5192    3.6316 S.O2    1  UNL1        0.0272
     16 C           6.2010    2.7711    4.3281 C.3     1  UNL1        0.0705
     17 O           3.7774    1.8307    3.9836 O.2     1  UNL1        0.1585
     18 O           5.7053    0.2130    3.8887 O.2     1  UNL1        0.1585
     19 H           0.9822   -0.7683    2.8962 H       1  UNL1        0.0426
     20 H           0.6481   -0.1076    1.2668 H       1  UNL1        0.0426
     21 H           0.9997    0.9986    2.6212 H       1  UNL1        0.0426
     22 H           3.2254   -0.5834    2.5084 H       1  UNL1        0.1484
     23 H           4.9123    2.2524   -0.6595 H       1  UNL1        0.0334
     24 H           4.7356    0.5776   -1.1348 H       1  UNL1        0.0334
     25 H           6.6541   -0.3599   -2.1663 H       1  UNL1        0.0620
     26 H           9.1034   -0.5447   -2.3946 H       1  UNL1        0.0618
     27 H          10.6053    0.8485   -0.9956 H       1  UNL1        0.0618
     28 H           9.6396    2.5123    0.5708 H       1  UNL1        0.0618
     29 H           7.2191    2.7494    0.7749 H       1  UNL1        0.0620
     30 H           4.9711    2.7810    1.7614 H       1  UNL1        0.1485
     31 H           5.8760    3.7456    3.9547 H       1  UNL1        0.0479
     32 H           7.2359    2.5726    4.0454 H       1  UNL1        0.0479
     33 H           6.0928    2.7444    5.4142 H       1  UNL1        0.0479
@<TRIPOS>BOND
     1     1     2    1
     2     2     3   am
     3     3     4    2
     4     3     5    1
     5     5     6    1
     6     5     7    1
     7     7     8    1
     8     8     9   ar
     9     9    10   ar
    10    10    11   ar
    11    11    12   ar
    12    12    13   ar
    13     8    13   ar
    14     5    14    1
    15    14    15    1
    16    15    16    1
    17    15    17    2
    18    15    18    2
    19     1    19    1
    20     1    20    1
    21     1    21    1
    22     2    22    1
    23     7    23    1
    24     7    24    1
    25     9    25    1
    26    10    26    1
    27    11    27    1
    28    12    28    1
    29    13    29    1
    30    14    30    1
    31    16    31    1
    32    16    32    1
    33    16    33    1
