@<TRIPOS>MOLECULE
MOL
   28    28     1     0     0
SMALL
No Charge or Current Charge


@<TRIPOS>ATOM
      1 C1          1.5050    1.9060    0.3110 C.ar      1 MOL      0.000000
      2 C2          2.5520    1.0150    0.5170 C.ar      1 MOL      0.000000
      3 C3          1.2310   -0.7140   -0.5500 C.ar      1 MOL      0.000000
      4 C4          0.3110    1.5110   -0.3130 C.ar      1 MOL      0.000000
      5 C5          0.1720    0.1770   -0.7520 C.ar      1 MOL      0.000000
      6 C6          2.4030   -0.3030    0.0830 C.ar      1 MOL      0.000000
      7 C7         -2.6500   -1.1830    0.2420 C.2       1 MOL      0.000000
      8 C8         -3.3480   -2.3780    0.8430 C.3       1 MOL      0.000000
      9 C9         -1.0650   -0.3510   -1.4740 C.3       1 MOL      0.000000
     10 C10        -0.7790    2.5430   -0.4600 C.3       1 MOL      0.000000
     11 N1         -1.7720   -1.4140   -0.7570 N.am      1 MOL      0.000000
     12 N2         -1.8240    2.3700    0.6320 N.4       1 MOL      0.000000
     13 O1         -2.8990   -0.0360    0.6590 O.2       1 MOL      0.000000
     14 Cl1         3.6970   -1.4450    0.3180 Cl        1 MOL      0.000000
     15 H1          1.6240    2.9380    0.6350 H         1 MOL      0.000000
     16 H2          3.4710    1.3350    0.9950 H         1 MOL      0.000000
     17 H3          1.1500   -1.7410   -0.8920 H         1 MOL      0.000000
     18 H4         -3.1240   -2.4180    1.9130 H         1 MOL      0.000000
     19 H5         -4.4290   -2.2410    0.7410 H         1 MOL      0.000000
     20 H6         -3.0630   -3.3270    0.3820 H         1 MOL      0.000000
     21 H7         -1.7840    0.4420   -1.6870 H         1 MOL      0.000000
     22 H8         -0.7660   -0.7680   -2.4400 H         1 MOL      0.000000
     23 H9         -0.3790    3.5540   -0.3660 H         1 MOL      0.000000
     24 H10        -1.3220    2.4830   -1.4050 H         1 MOL      0.000000
     25 H11        -1.6270   -2.3680   -1.0540 H         1 MOL      0.000000
     26 H12        -1.3980    2.4820    1.5580 H         1 MOL      0.000000
     27 H13        -2.2490    1.3810    0.5920 H         1 MOL      0.000000
     28 H14        -2.5830    3.0560    0.5520 H         1 MOL      0.000000
@<TRIPOS>BOND
     1    1    2 ar  
     2    1    4 ar  
     3    1   15 1   
     4    2    6 ar  
     5    2   16 1   
     6    3    5 ar  
     7    3    6 ar  
     8    3   17 1   
     9    4    5 ar  
    10    4   10 1   
    11    5    9 1   
    12    6   14 1   
    13    7    8 1   
    14    7   11 am  
    15    7   13 2   
    16    8   18 1   
    17    8   19 1   
    18    8   20 1   
    19    9   11 1   
    20    9   21 1   
    21    9   22 1   
    22   10   12 1   
    23   10   23 1   
    24   10   24 1   
    25   11   25 1   
    26   12   26 1   
    27   12   27 1   
    28   12   28 1   
@<TRIPOS>SUBSTRUCTURE
     1 MOL         1 TEMP              0 ****  ****    0 ROOT
