@<TRIPOS>MOLECULE
MOL
   28    28     1     0     0
SMALL
No Charge or Current Charge


@<TRIPOS>ATOM
 1  C1  1.505000  1.906000  0.311000  C.ar  1  MOL  -0.212298 
 2  C2  2.552000  1.015000  0.517000  C.ar  1  MOL  -0.031106 
 3  C3  1.231000  -0.714000  -0.550000  C.ar  1  MOL  -0.171718 
 4  C4  0.311000  1.511000  -0.313000  C.ar  1  MOL  -0.003942 
 5  C5  0.172000  0.177000  -0.752000  C.ar  1  MOL  0.053559 
 6  C6  2.403000  -0.303000  0.083000  C.ar  1  MOL  -0.017147 
 7  C7  -2.650000  -1.183000  0.242000  C.2  1  MOL  0.419930 
 8  C8  -3.348000  -2.378000  0.843000  C.3  1  MOL  -0.016420 
 9  C9  -1.065000  -0.351000  -1.474000  C.3  1  MOL  -0.102841 
 10  C10  -0.779000  2.543000  -0.460000  C.3  1  MOL  -0.043097 
 11  N1  -1.772000  -1.414000  -0.757000  N.am  1  MOL  -0.166421 
 12  N2  -1.824000  2.370000  0.632000  N.4  1  MOL  -0.320526 
 13  O1  -2.899000  -0.036000  0.659000  O.2  1  MOL  -0.497640 
 14  Cl1  3.697000  -1.445000  0.318000  Cl  1  MOL  -0.031689 
 15  H1  1.624000  2.938000  0.635000  H  1  MOL  0.177786 
 16  H2  3.471000  1.335000  0.995000  H  1  MOL  0.150022 
 17  H3  1.150000  -1.741000  -0.892000  H  1  MOL  0.174546 
 18  H4  -3.124000  -2.418000  1.913000  H  1  MOL  0.031380 
 19  H5  -4.429000  -2.241000  0.741000  H  1  MOL  0.031380 
 20  H6  -3.063000  -3.327000  0.382000  H  1  MOL  0.031380 
 21  H7  -1.784000  0.442000  -1.687000  H  1  MOL  0.099955 
 22  H8  -0.766000  -0.768000  -2.440000  H  1  MOL  0.099955 
 23  H9  -0.379000  3.554000  -0.366000  H  1  MOL  0.124459 
 24  H10  -1.322000  2.483000  -1.405000  H  1  MOL  0.124459 
 25  H11  -1.627000  -2.368000  -1.054000  H  1  MOL  0.224339 
 26  H12  -1.398000  2.482000  1.558000  H  1  MOL  0.290565 
 27  H13  -2.249000  1.381000  0.592000  H  1  MOL  0.290565 
 28  H14  -2.583000  3.056000  0.552000  H  1  MOL  0.290565 
@<TRIPOS>BOND
     1    1    2 ar  
     2    1    4 ar  
     3    1   15 1   
     4    2    6 ar  
     5    2   16 1   
     6    3    5 ar  
     7    3    6 ar  
     8    3   17 1   
     9    4    5 ar  
    10    4   10 1   
    11    5    9 1   
    12    6   14 1   
    13    7    8 1   
    14    7   11 am  
    15    7   13 2   
    16    8   18 1   
    17    8   19 1   
    18    8   20 1   
    19    9   11 1   
    20    9   21 1   
    21    9   22 1   
    22   10   12 1   
    23   10   23 1   
    24   10   24 1   
    25   11   25 1   
    26   12   26 1   
    27   12   27 1   
    28   12   28 1   
@<TRIPOS>SUBSTRUCTURE
     1 MOL         1 TEMP              0 ****  ****    0 ROOT
