@<TRIPOS>MOLECULE
MOL
   23    23     1     0     0
SMALL
No Charge or Current Charge


@<TRIPOS>ATOM
      1 C1           3.8150     0.1680    -0.3080 C.ar       1 MOL       0.000000
      2 C2           3.0640     1.3420    -0.2300 C.ar       1 MOL       0.000000
      3 C3           3.2370    -1.0510     0.0550 C.ar       1 MOL       0.000000
      4 C4           1.7430     1.2990     0.2130 C.ar       1 MOL       0.000000
      5 C5           1.9160    -1.0940     0.4990 C.ar       1 MOL       0.000000
      6 C6           1.1600     0.0820     0.5890 C.ar       1 MOL       0.000000
      7 C7          -3.7400     0.9300     0.3710 C.3        1 MOL       0.000000
      8 C8          -0.2690     0.0310     1.0570 C.3        1 MOL       0.000000
      9 N1          -2.9220    -0.2840     0.4910 N.3        1 MOL       0.000000
     10 O1          -1.3530     0.8230    -1.2600 O.2        1 MOL       0.000000
     11 O2          -1.2400    -1.6880    -0.7660 O.2        1 MOL       0.000000
     12 S1          -1.4270    -0.3020    -0.3210 S.o2       1 MOL       0.000000
     13 H1           4.8450     0.2010    -0.6510 H          1 MOL       0.000000
     14 H2           3.5070     2.2930    -0.5160 H          1 MOL       0.000000
     15 H3           3.8150    -1.9690    -0.0080 H          1 MOL       0.000000
     16 H4           1.1570     2.2130     0.2630 H          1 MOL       0.000000
     17 H5           1.4640    -2.0440     0.7710 H          1 MOL       0.000000
     18 H6          -3.2050     1.7760     0.8110 H          1 MOL       0.000000
     19 H7          -4.6540     0.7700     0.9500 H          1 MOL       0.000000
     20 H8          -3.9990     1.1850    -0.6630 H          1 MOL       0.000000
     21 H9          -0.5970     0.9790     1.4930 H          1 MOL       0.000000
     22 H10         -0.4500    -0.7710     1.7760 H          1 MOL       0.000000
     23 H11         -3.4110    -1.1330     0.2130 H          1 MOL       0.000000
@<TRIPOS>BOND
     1     1     2 ar  
     2     1     3 ar  
     3     1    13 1   
     4     2     4 ar  
     5     2    14 1   
     6     3     5 ar  
     7     3    15 1   
     8     4     6 ar  
     9     4    16 1   
    10     5     6 ar  
    11     5    17 1   
    12     6     8 1   
    13     7     9 1   
    14     7    18 1   
    15     7    19 1   
    16     7    20 1   
    17     8    12 1   
    18     8    21 1   
    19     8    22 1   
    20     9    12 1   
    21     9    23 1   
    22    10    12 2   
    23    11    12 2   
@<TRIPOS>SUBSTRUCTURE
     1 MOL         1 TEMP              0 ****  ****    0 ROOT
