@<TRIPOS>MOLECULE
MOL
   23    23     1     0     0
SMALL
No Charge or Current Charge


@<TRIPOS>ATOM
 1  C1  3.815000  0.168000  -0.308000  C.ar  1  MOL  -0.079620 
 2  C2  3.064000  1.342000  -0.230000  C.ar  1  MOL  -0.187041 
 3  C3  3.237000  -1.051000  0.055000  C.ar  1  MOL  -0.187041 
 4  C4  1.743000  1.299000  0.213000  C.ar  1  MOL  -0.136653 
 5  C5  1.916000  -1.094000  0.499000  C.ar  1  MOL  -0.136653 
 6  C6  1.160000  0.082000  0.589000  C.ar  1  MOL  0.149849 
 7  C7  -3.740000  0.930000  0.371000  C.3  1  MOL  0.017566 
 8  C8  -0.269000  0.031000  1.057000  C.3  1  MOL  -0.400998 
 9  N1  -2.922000  -0.284000  0.491000  N.3  1  MOL  -0.613581 
 10  O1  -1.353000  0.823000  -1.260000  O.2  1  MOL  -0.489319 
 11  O2  -1.240000  -1.688000  -0.766000  O.2  1  MOL  -0.489319 
 12  S1  -1.427000  -0.302000  -0.321000  S.o2  1  MOL  0.879864 
 13  H1  4.845000  0.201000  -0.651000  H  1  MOL  0.130048 
 14  H2  3.507000  2.293000  -0.516000  H  1  MOL  0.149138 
 15  H3  3.815000  -1.969000  -0.008000  H  1  MOL  0.149138 
 16  H4  1.157000  2.213000  0.263000  H  1  MOL  0.148502 
 17  H5  1.464000  -2.044000  0.771000  H  1  MOL  0.148502 
 18  H6  -3.205000  1.776000  0.811000  H  1  MOL  0.085324 
 19  H7  -4.654000  0.770000  0.950000  H  1  MOL  0.073678 
 20  H8  -3.999000  1.185000  -0.663000  H  1  MOL  0.067220 
 21  H9  -0.597000  0.979000  1.493000  H  1  MOL  0.175801 
 22  H10  -0.450000  -0.771000  1.776000  H  1  MOL  0.175801 
 23  H11  -3.411000  -1.133000  0.213000  H  1  MOL  0.369792 
@<TRIPOS>BOND
     1     1     2 ar  
     2     1     3 ar  
     3     1    13 1   
     4     2     4 ar  
     5     2    14 1   
     6     3     5 ar  
     7     3    15 1   
     8     4     6 ar  
     9     4    16 1   
    10     5     6 ar  
    11     5    17 1   
    12     6     8 1   
    13     7     9 1   
    14     7    18 1   
    15     7    19 1   
    16     7    20 1   
    17     8    12 1   
    18     8    21 1   
    19     8    22 1   
    20     9    12 1   
    21     9    23 1   
    22    10    12 2   
    23    11    12 2   
@<TRIPOS>SUBSTRUCTURE
     1 MOL         1 TEMP              0 ****  ****    0 ROOT
