@<TRIPOS>MOLECULE
MOL
   22    22     1     0     0
SMALL
No Charge or Current Charge


@<TRIPOS>ATOM
 1  C1  -2.758000  1.274000  0.416000  C.ar  1  MOL  -0.280063 
 2  C2  -1.487000  1.720000  0.043000  C.ar  1  MOL  -0.098020 
 3  C3  -3.059000  -0.087000  0.407000  C.ar  1  MOL  -0.118001 
 4  C4  -0.797000  -0.562000  -0.364000  C.ar  1  MOL  -0.151551 
 5  C5  -0.500000  0.809000  -0.349000  C.ar  1  MOL  0.058455 
 6  C6  -2.065000  -0.979000  0.014000  C.ar  1  MOL  0.181530 
 7  C7  2.703000  -0.225000  0.001000  C.2  1  MOL  0.510929 
 8  C8  3.693000  -0.536000  1.114000  C.3  1  MOL  -0.313908 
 9  C9  0.886000  1.282000  -0.746000  C.3  1  MOL  -0.142807 
 10  N1  1.934000  0.892000  0.193000  N.am  1  MOL  -0.353167 
 11  O1  2.614000  -0.926000  -1.001000  O.2  1  MOL  -0.514977 
 12  F1  -2.349000  -2.299000  -0.003000  F  1  MOL  -0.192044 
 13  H1  -3.518000  1.990000  0.717000  H  1  MOL  0.186316 
 14  H2  -1.264000  2.784000  0.051000  H  1  MOL  0.129647 
 15  H3  -4.037000  -0.463000  0.691000  H  1  MOL  0.150964 
 16  H4  -0.053000  -1.290000  -0.671000  H  1  MOL  0.154615 
 17  H5  3.428000  -1.499000  1.563000  H  1  MOL  0.111818 
 18  H6  4.689000  -0.645000  0.675000  H  1  MOL  0.116842 
 19  H7  3.730000  0.224000  1.900000  H  1  MOL  0.089295 
 20  H8  1.175000  0.851000  -1.709000  H  1  MOL  0.108589 
 21  H9  0.896000  2.373000  -0.845000  H  1  MOL  0.108589 
 22  H10  1.953000  1.345000  1.096000  H  1  MOL  0.256949 
@<TRIPOS>BOND
     1     1     2 ar  
     2     1     3 ar  
     3     1    13 1   
     4     2     5 ar  
     5     2    14 1   
     6     3     6 ar  
     7     3    15 1   
     8     4     5 ar  
     9     4     6 ar  
    10     4    16 1   
    11     5     9 1   
    12     6    12 1   
    13     7     8 1   
    14     7    10 am  
    15     7    11 2   
    16     8    17 1   
    17     8    18 1   
    18     8    19 1   
    19     9    10 1   
    20     9    20 1   
    21     9    21 1   
    22    10    22 1   
@<TRIPOS>SUBSTRUCTURE
     1 MOL         1 TEMP              0 ****  ****    0 ROOT
