@<TRIPOS>MOLECULE
*****
 26 26 0 0 0
SMALL
GASTEIGER

@<TRIPOS>ATOM
      1 C           6.9096    0.8988   -3.0087 C.3     1  UNL1        0.0001
      2 N           6.3711    0.8531   -1.6751 N.am    1  UNL1        0.3168
      3 C           5.1886    1.4836   -1.3451 C.2     1  UNL1        0.2333
      4 O           4.5748    2.1993   -2.1346 O.2     1  UNL1        0.2738
      5 C           4.7564    1.3482    0.1340 C.3     1  UNL1        0.1022
      6 H           3.6633    1.3357    0.1768 H       1  UNL1        0.0597
      7 C           5.3196    2.4709    1.0008 C.3     1  UNL1        0.0243
      8 C           6.6825    1.9418    1.4308 C.3     1  UNL1        0.0350
      9 C           6.4405    0.4474    1.6122 C.3     1  UNL1        0.0155
     10 N           5.3105    0.1365    0.7446 N.am    1  UNL1        0.2901
     11 C           4.7726   -1.1275    0.6882 C.2     1  UNL1        0.2131
     12 C           3.5568   -1.3561   -0.1807 C.3     1  UNL1        0.0124
     13 O           5.2665   -2.0659    1.3165 O.2     1  UNL1        0.2759
     14 H           7.8148    0.2878   -3.0452 H       1  UNL1        0.0426
     15 H           7.1485    1.9348   -3.2625 H       1  UNL1        0.0426
     16 H           6.1684    0.5125   -3.7131 H       1  UNL1        0.0426
     17 H           6.7690    0.2066   -1.0029 H       1  UNL1        0.1484
     18 H           4.6890    2.5939    1.8912 H       1  UNL1        0.0288
     19 H           5.3799    3.4348    0.4885 H       1  UNL1        0.0288
     20 H           7.0553    2.4199    2.3409 H       1  UNL1        0.0281
     21 H           7.4166    2.1188    0.6362 H       1  UNL1        0.0281
     22 H           6.1755    0.1984    2.6447 H       1  UNL1        0.0465
     23 H           7.3108   -0.1486    1.3175 H       1  UNL1        0.0465
     24 H           3.2400   -0.4814   -0.7473 H       1  UNL1        0.0323
     25 H           2.7220   -1.6709    0.4521 H       1  UNL1        0.0323
     26 H           3.7857   -2.1434   -0.9040 H       1  UNL1        0.0323
@<TRIPOS>BOND
     1     1     2    1
     2     2     3   am
     3     3     4    2
     4     5     7    1
     5     7     8    1
     6     8     9    1
     7     9    10    1
     8     5    10    1
     9    10    11   am
    10    11    12    1
    11    11    13    2
    12     5     6    1
    13     5     3    1
    14     1    14    1
    15     1    15    1
    16     1    16    1
    17     2    17    1
    18     7    18    1
    19     7    19    1
    20     8    20    1
    21     8    21    1
    22     9    22    1
    23     9    23    1
    24    12    24    1
    25    12    25    1
    26    12    26    1
