@<TRIPOS>MOLECULE
*****
 24 24 0 0 0
SMALL
GASTEIGER

@<TRIPOS>ATOM
      1 C           2.8844    2.0473    1.0629 C.3     1  UNL1        0.0059
      2 N           2.7644    0.6687    0.6135 N.3     1  UNL1        0.1930
      3 S           3.1589   -0.5966    1.6385 S.O2    1  UNL1        0.0582
      4 O           2.7268   -0.2727    2.9781 O.2     1  UNL1        0.1531
      5 O           2.7321   -1.8036    0.9645 O.2     1  UNL1        0.1531
      6 C           4.9373   -0.5952    1.6426 C.ar    1  UNL1        0.1068
      7 C           5.6316   -1.6719    1.0825 C.ar    1  UNL1        0.0318
      8 C           7.0255   -1.7235    1.1742 C.ar    1  UNL1        0.0166
      9 C           7.7285   -0.7026    1.8238 C.ar    1  UNL1        0.1384
     10 O           9.0947   -0.7008    1.9391 O.3     1  UNL1        0.4936
     11 C           9.6760   -1.9755    2.2021 C.3     1  UNL1        0.0789
     12 C           7.0221    0.3922    2.3455 C.ar    1  UNL1        0.0844
     13 CL          7.8373    1.7060    3.1169 Cl      1  UNL1        0.0797
     14 C           5.6282    0.4358    2.2806 C.ar    1  UNL1        0.0135
     15 H           2.3344    2.6949    0.3739 H       1  UNL1        0.0405
     16 H           3.9259    2.3721    1.0595 H       1  UNL1        0.0405
     17 H           2.4511    2.1821    2.0578 H       1  UNL1        0.0405
     18 H           2.8868    0.4639   -0.3763 H       1  UNL1        0.1477
     19 H           5.1000   -2.4868    0.5934 H       1  UNL1        0.0638
     20 H           7.5419   -2.5682    0.7276 H       1  UNL1        0.0655
     21 H          10.7090   -1.8124    2.5242 H       1  UNL1        0.0660
     22 H           9.7054   -2.5860    1.2946 H       1  UNL1        0.0660
     23 H           9.1518   -2.4996    3.0095 H       1  UNL1        0.0660
     24 H           5.0907    1.2588    2.7425 H       1  UNL1        0.0653
@<TRIPOS>BOND
     1     1     2    1
     2     2     3    1
     3     3     4    2
     4     3     5    2
     5     3     6    1
     6     6     7   ar
     7     7     8   ar
     8     8     9   ar
     9     9    10    1
    10    10    11    1
    11     9    12   ar
    12    12    13    1
    13    12    14   ar
    14     6    14   ar
    15     1    15    1
    16     1    16    1
    17     1    17    1
    18     2    18    1
    19     7    19    1
    20     8    20    1
    21    11    21    1
    22    11    22    1
    23    11    23    1
    24    14    24    1
