@<TRIPOS>MOLECULE
MOL
   22    22     1     0     0
SMALL
No Charge or Current Charge


@<TRIPOS>ATOM
 1  C1  -1.606000  1.808000  -0.078000  C.ar  1  MOL  -0.280063 
 2  C2  -0.446000  1.156000  0.339000  C.ar  1  MOL  -0.098020 
 3  C3  -2.773000  1.087000  -0.348000  C.ar  1  MOL  -0.118001 
 4  C4  -1.600000  -0.966000  0.225000  C.ar  1  MOL  -0.151551 
 5  C5  -0.436000  -0.239000  0.492000  C.ar  1  MOL  0.058455 
 6  C6  -2.744000  -0.291000  -0.188000  C.ar  1  MOL  0.181530 
 7  C7  2.892000  -0.008000  -0.070000  C.2  1  MOL  0.510929 
 8  C8  3.864000  -0.086000  -1.238000  C.3  1  MOL  -0.313908 
 9  C9  0.832000  -0.950000  0.933000  C.3  1  MOL  -0.142807 
 10  N1  1.889000  -0.940000  -0.075000  N.am  1  MOL  -0.353167 
 11  O1  3.012000  0.831000  0.817000  O.2  1  MOL  -0.514977 
 12  F1  -3.862000  -1.006000  -0.443000  F  1  MOL  -0.192044 
 13  H1  -1.608000  2.888000  -0.190000  H  1  MOL  0.186316 
 14  H2  0.457000  1.718000  0.554000  H  1  MOL  0.129647 
 15  H3  -3.688000  1.573000  -0.671000  H  1  MOL  0.150964 
 16  H4  -1.634000  -2.046000  0.338000  H  1  MOL  0.154615 
 17  H5  3.790000  0.836000  -1.823000  H  1  MOL  0.111818 
 18  H6  4.882000  -0.140000  -0.841000  H  1  MOL  0.116842 
 19  H7  3.694000  -0.941000  -1.900000  H  1  MOL  0.089295 
 20  H8  1.257000  -0.459000  1.812000  H  1  MOL  0.108589 
 21  H9  0.611000  -1.990000  1.195000  H  1  MOL  0.108589 
 22  H10  1.762000  -1.511000  -0.900000  H  1  MOL  0.256949 
@<TRIPOS>BOND
     1     1     2 ar  
     2     1     3 ar  
     3     1    13 1   
     4     2     5 ar  
     5     2    14 1   
     6     3     6 ar  
     7     3    15 1   
     8     4     5 ar  
     9     4     6 ar  
    10     4    16 1   
    11     5     9 1   
    12     6    12 1   
    13     7     8 1   
    14     7    10 am  
    15     7    11 2   
    16     8    17 1   
    17     8    18 1   
    18     8    19 1   
    19     9    10 1   
    20     9    20 1   
    21     9    21 1   
    22    10    22 1   
@<TRIPOS>SUBSTRUCTURE
     1 MOL         1 TEMP              0 ****  ****    0 ROOT
