@<TRIPOS>MOLECULE
MOL
   22    22     1     0     0
SMALL
No Charge or Current Charge


@<TRIPOS>ATOM
      1 C1          -1.6060     1.8080    -0.0780 C.ar       1 MOL       0.000000
      2 C2          -0.4460     1.1560     0.3390 C.ar       1 MOL       0.000000
      3 C3          -2.7730     1.0870    -0.3480 C.ar       1 MOL       0.000000
      4 C4          -1.6000    -0.9660     0.2250 C.ar       1 MOL       0.000000
      5 C5          -0.4360    -0.2390     0.4920 C.ar       1 MOL       0.000000
      6 C6          -2.7440    -0.2910    -0.1880 C.ar       1 MOL       0.000000
      7 C7           2.8920    -0.0080    -0.0700 C.2        1 MOL       0.000000
      8 C8           3.8640    -0.0860    -1.2380 C.3        1 MOL       0.000000
      9 C9           0.8320    -0.9500     0.9330 C.3        1 MOL       0.000000
     10 N1           1.8890    -0.9400    -0.0750 N.am       1 MOL       0.000000
     11 O1           3.0120     0.8310     0.8170 O.2        1 MOL       0.000000
     12 F1          -3.8620    -1.0060    -0.4430 F          1 MOL       0.000000
     13 H1          -1.6080     2.8880    -0.1900 H          1 MOL       0.000000
     14 H2           0.4570     1.7180     0.5540 H          1 MOL       0.000000
     15 H3          -3.6880     1.5730    -0.6710 H          1 MOL       0.000000
     16 H4          -1.6340    -2.0460     0.3380 H          1 MOL       0.000000
     17 H5           3.7900     0.8360    -1.8230 H          1 MOL       0.000000
     18 H6           4.8820    -0.1400    -0.8410 H          1 MOL       0.000000
     19 H7           3.6940    -0.9410    -1.9000 H          1 MOL       0.000000
     20 H8           1.2570    -0.4590     1.8120 H          1 MOL       0.000000
     21 H9           0.6110    -1.9900     1.1950 H          1 MOL       0.000000
     22 H10          1.7620    -1.5110    -0.9000 H          1 MOL       0.000000
@<TRIPOS>BOND
     1     1     2 ar  
     2     1     3 ar  
     3     1    13 1   
     4     2     5 ar  
     5     2    14 1   
     6     3     6 ar  
     7     3    15 1   
     8     4     5 ar  
     9     4     6 ar  
    10     4    16 1   
    11     5     9 1   
    12     6    12 1   
    13     7     8 1   
    14     7    10 am  
    15     7    11 2   
    16     8    17 1   
    17     8    18 1   
    18     8    19 1   
    19     9    10 1   
    20     9    20 1   
    21     9    21 1   
    22    10    22 1   
@<TRIPOS>SUBSTRUCTURE
     1 MOL         1 TEMP              0 ****  ****    0 ROOT
