@<TRIPOS>MOLECULE
MOL
   22    21     1     0     0
SMALL
No Charge or Current Charge


@<TRIPOS>ATOM
      1 C1          2.3190   -0.0660   -0.2360 C.2       1 MOL      0.000000
      2 C2         -1.3360   -0.2980    0.0600 C.2       1 MOL      0.000000
      3 C3          3.3620   -1.1420    0.0290 C.3       1 MOL      0.000000
      4 C4         -0.0760    1.7210    0.9570 C.3       1 MOL      0.000000
      5 C5         -3.7630   -0.3360   -0.4130 C.3       1 MOL      0.000000
      6 C6         -0.0550    0.5460   -0.0410 C.3       1 MOL      0.000000
      7 N1         -2.4500    0.2840   -0.4600 N.am      1 MOL      0.000000
      8 N2          1.0590   -0.3490    0.1980 N.am      1 MOL      0.000000
      9 O1          2.5990    0.9890   -0.7990 O.2       1 MOL      0.000000
     10 O2         -1.3370   -1.4030    0.5980 O.2       1 MOL      0.000000
     11 H1          3.8040   -1.4460   -0.9250 H         1 MOL      0.000000
     12 H2          4.1640   -0.7150    0.6380 H         1 MOL      0.000000
     13 H3          2.9630   -2.0260    0.5360 H         1 MOL      0.000000
     14 H4         -0.1870    1.3500    1.9810 H         1 MOL      0.000000
     15 H5          0.8660    2.2690    0.8740 H         1 MOL      0.000000
     16 H6         -0.9010    2.4110    0.7460 H         1 MOL      0.000000
     17 H7         -4.1510   -0.5160   -1.4220 H         1 MOL      0.000000
     18 H8         -4.4760    0.2910    0.1350 H         1 MOL      0.000000
     19 H9         -3.6550   -1.2900    0.1040 H         1 MOL      0.000000
     20 H10         0.0460    0.9540   -1.0550 H         1 MOL      0.000000
     21 H11        -2.3550    1.1840   -0.9090 H         1 MOL      0.000000
     22 H12         0.8100   -1.2480    0.5950 H         1 MOL      0.000000
@<TRIPOS>BOND
     1    1    3 1   
     2    1    8 am  
     3    1    9 2   
     4    2    6 1   
     5    2    7 am  
     6    2   10 2   
     7    3   11 1   
     8    3   12 1   
     9    3   13 1   
    10    4    6 1   
    11    4   14 1   
    12    4   15 1   
    13    4   16 1   
    14    5    7 1   
    15    5   17 1   
    16    5   18 1   
    17    5   19 1   
    18    6    8 1   
    19    6   20 1   
    20    7   21 1   
    21    8   22 1   
@<TRIPOS>SUBSTRUCTURE
     1 MOL         1 TEMP              0 ****  ****    0 ROOT
