@<TRIPOS>MOLECULE
MOL
   21    21     1     0     0
SMALL
No Charge or Current Charge


@<TRIPOS>ATOM
 1  C1  2.509000  1.359000  -0.001000  C.ar  1  MOL  -0.104836 
 2  C2  1.347000  -0.755000  0.001000  C.ar  1  MOL  -0.181752 
 3  C3  1.260000  1.970000  -0.000000  C.ar  1  MOL  0.061139 
 4  C4  2.535000  -0.037000  -0.000000  C.ar  1  MOL  -0.013975 
 5  C5  0.143000  -0.038000  0.002000  C.ar  1  MOL  0.467549 
 6  C6  -3.576000  -0.325000  -0.001000  C.2  1  MOL  0.510929 
 7  C7  -4.655000  0.748000  -0.002000  C.3  1  MOL  -0.313908 
 8  C8  -1.177000  -0.786000  0.004000  C.3  1  MOL  -0.295442 
 9  N1  0.100000  1.300000  0.001000  N.ar  1  MOL  -0.461674 
 10  N2  -2.293000  0.130000  0.004000  N.am  1  MOL  -0.353167 
 11  O1  -3.842000  -1.523000  -0.003000  O.2  1  MOL  -0.514977 
 12  Cl1  4.068000  -0.882000  -0.001000  Cl  1  MOL  -0.066636 
 13  H1  3.424000  1.941000  -0.002000  H  1  MOL  0.132118 
 14  H2  1.350000  -1.840000  0.002000  H  1  MOL  0.141401 
 15  H3  1.186000  3.055000  -0.001000  H  1  MOL  0.137538 
 16  H4  -4.260000  1.769000  0.000000  H  1  MOL  0.111818 
 17  H5  -5.287000  0.612000  -0.885000  H  1  MOL  0.116842 
 18  H6  -5.292000  0.610000  0.877000  H  1  MOL  0.089295 
 19  H7  -1.230000  -1.451000  -0.871000  H  1  MOL  0.140394 
 20  H8  -1.228000  -1.449000  0.880000  H  1  MOL  0.140394 
 21  H9  -2.059000  1.115000  0.003000  H  1  MOL  0.256949 
@<TRIPOS>BOND
     1     1     3 ar  
     2     1     4 ar  
     3     1    13 1   
     4     2     4 ar  
     5     2     5 ar  
     6     2    14 1   
     7     3     9 ar  
     8     3    15 1   
     9     4    12 1   
    10     5     8 1   
    11     5     9 ar  
    12     6     7 1   
    13     6    10 am  
    14     6    11 2   
    15     7    16 1   
    16     7    17 1   
    17     7    18 1   
    18     8    10 1   
    19     8    19 1   
    20     8    20 1   
    21    10    21 1   
@<TRIPOS>SUBSTRUCTURE
     1 MOL         1 TEMP              0 ****  ****    0 ROOT
