@<TRIPOS>MOLECULE
*****
 42 42 0 0 0
SMALL
GASTEIGER

@<TRIPOS>ATOM
      1 C           0.5544   -0.3276   -0.2694 C.3     1  UNL1        0.0030
      2 N           1.9970   -0.0779   -0.1593 N.am    1  UNL1        0.3030
      3 C           2.3524    1.0814    0.6567 C.3     1  UNL1        0.0030
      4 C           2.8294   -0.9045   -0.9175 C.2     1  UNL1        0.2633
      5 O           2.3248   -1.8687   -1.5244 O.2     1  UNL1        0.2694
      6 C           4.4047   -0.7289   -1.0898 C.3     1  UNL1        0.0557
      7 H           4.6502    0.3137   -1.2911 H       1  UNL1        0.0949
      8 C           5.2443   -1.2608    0.0977 C.3     1  UNL1        0.0018
      9 C           6.8119   -1.3640   -0.0445 C.3     1  UNL1        0.0355
     10 C           7.5660   -0.2325   -0.7616 C.3     1  UNL1        0.0500
     11 C           7.4922    1.0920   -0.0238 C.3     1  UNL1        0.0528
     12 C           8.0682    0.9629    1.3802 C.3     1  UNL1        0.0530
     13 C           7.5128   -0.2373    2.1480 C.3     1  UNL1        0.0528
     14 C           7.4612   -1.5405    1.3426 C.3     1  UNL1        0.0500
     15 N           4.8601   -1.5717   -2.3147 N.4     1  UNL1        0.2399
     16 H           5.8833   -1.6230   -2.3492 H       1  UNL1        0.2025
     17 H           4.4515   -2.5107   -2.2588 H       1  UNL1        0.2025
     18 C           4.5071   -0.9587   -3.6633 C.3     1  UNL1        0.0076
     19 C           5.0384    0.4804   -3.8354 C.2     1  UNL1        0.0863
     20 O           6.3037    0.5350   -3.8485 O.co2   1  UNL1        0.5444
     21 O           4.1731    1.3788   -3.7164 O.co2   1  UNL1        0.5444
     22 H          -0.0308    0.3187    0.3953 H       1  UNL1        0.0428
     23 H           0.3289   -1.3686   -0.0212 H       1  UNL1        0.0428
     24 H           0.2456   -0.1286   -1.3015 H       1  UNL1        0.0428
     25 H           1.4813    1.7465    0.7613 H       1  UNL1        0.0428
     26 H           3.1678    1.6520    0.2169 H       1  UNL1        0.0428
     27 H           2.6131    0.7405    1.6640 H       1  UNL1        0.0428
     28 H           4.9000   -2.2824    0.3239 H       1  UNL1        0.0328
     29 H           4.9877   -0.6752    0.9846 H       1  UNL1        0.0328
     30 H           7.0230   -2.2831   -0.6115 H       1  UNL1        0.0303
     31 H           7.2229   -0.1095   -1.7839 H       1  UNL1        0.0268
     32 H           8.6268   -0.5159   -0.8515 H       1  UNL1        0.0268
     33 H           6.4539    1.4358    0.0218 H       1  UNL1        0.0265
     34 H           8.0545    1.8540   -0.5782 H       1  UNL1        0.0265
     35 H           7.8579    1.8823    1.9396 H       1  UNL1        0.0265
     36 H           9.1607    0.8823    1.3159 H       1  UNL1        0.0265
     37 H           6.5033    0.0089    2.4925 H       1  UNL1        0.0265
     38 H           8.1176   -0.3954    3.0482 H       1  UNL1        0.0265
     39 H           6.9186   -2.3027    1.9135 H       1  UNL1        0.0268
     40 H           8.4837   -1.9230    1.2160 H       1  UNL1        0.0268
     41 H           3.4244   -1.0278   -3.7859 H       1  UNL1        0.0878
     42 H           4.9825   -1.6077   -4.4097 H       1  UNL1        0.0878
@<TRIPOS>BOND
     1     1     2    1
     2     2     3    1
     3     2     4   am
     4     4     5    2
     5     4     6    1
     6     6     7    1
     7     6     8    1
     8     8     9    1
     9     9    10    1
    10    10    11    1
    11    11    12    1
    12    12    13    1
    13    13    14    1
    14     9    14    1
    15     6    15    1
    16    15    16    1
    17    15    17    1
    18    15    18    1
    19    18    19    1
    20    19    20   ar
    21    19    21   ar
    22     1    22    1
    23     1    23    1
    24     1    24    1
    25     3    25    1
    26     3    26    1
    27     3    27    1
    28     8    28    1
    29     8    29    1
    30     9    30    1
    31    10    31    1
    32    10    32    1
    33    11    33    1
    34    11    34    1
    35    12    35    1
    36    12    36    1
    37    13    37    1
    38    13    38    1
    39    14    39    1
    40    14    40    1
    41    18    41    1
    42    18    42    1
