@<TRIPOS>MOLECULE
MOL
   22    21     1     0     0
SMALL
No Charge or Current Charge


@<TRIPOS>ATOM
      1 C1          2.3190   -0.0660   -0.2360 C.2       1 MOL      0.000000
      2 C2         -1.3360   -0.2970    0.0610 C.2       1 MOL      0.000000
      3 C3          3.3620   -1.1430    0.0280 C.3       1 MOL      0.000000
      4 C4         -0.0760    1.7210    0.9580 C.3       1 MOL      0.000000
      5 C5         -3.7630   -0.3360   -0.4140 C.3       1 MOL      0.000000
      6 C6         -0.0550    0.5460   -0.0410 C.3       1 MOL      0.000000
      7 N1         -2.4500    0.2840   -0.4600 N.am      1 MOL      0.000000
      8 N2          1.0590   -0.3490    0.1980 N.am      1 MOL      0.000000
      9 O1          2.5990    0.9890   -0.8000 O.2       1 MOL      0.000000
     10 O2         -1.3370   -1.4020    0.6000 O.2       1 MOL      0.000000
     11 H1          3.8000   -1.4510   -0.9260 H         1 MOL      0.000000
     12 H2          4.1670   -0.7140    0.6320 H         1 MOL      0.000000
     13 H3          2.9630   -2.0240    0.5400 H         1 MOL      0.000000
     14 H4         -0.1860    1.3500    1.9820 H         1 MOL      0.000000
     15 H5          0.8660    2.2690    0.8750 H         1 MOL      0.000000
     16 H6         -0.9010    2.4110    0.7470 H         1 MOL      0.000000
     17 H7         -4.1480   -0.5200   -1.4240 H         1 MOL      0.000000
     18 H8         -4.4780    0.2920    0.1290 H         1 MOL      0.000000
     19 H9         -3.6550   -1.2890    0.1050 H         1 MOL      0.000000
     20 H10         0.0460    0.9550   -1.0540 H         1 MOL      0.000000
     21 H11        -2.3540    1.1820   -0.9130 H         1 MOL      0.000000
     22 H12         0.8100   -1.2470    0.5970 H         1 MOL      0.000000
@<TRIPOS>BOND
     1    1    3 1   
     2    1    8 am  
     3    1    9 2   
     4    2    6 1   
     5    2    7 am  
     6    2   10 2   
     7    3   11 1   
     8    3   12 1   
     9    3   13 1   
    10    4    6 1   
    11    4   14 1   
    12    4   15 1   
    13    4   16 1   
    14    5    7 1   
    15    5   17 1   
    16    5   18 1   
    17    5   19 1   
    18    6    8 1   
    19    6   20 1   
    20    7   21 1   
    21    8   22 1   
@<TRIPOS>SUBSTRUCTURE
     1 MOL         1 TEMP              0 ****  ****    0 ROOT
