@<TRIPOS>MOLECULE
MOL
   31    31     1     0     0
SMALL
No Charge or Current Charge


@<TRIPOS>ATOM
 1  C1  1.872000  0.356000  -0.126000  C.2  1  MOL  0.983980 
 2  C2  -3.786000  -0.968000  0.521000  C.3  1  MOL  -0.127835 
 3  C3  -4.043000  0.566000  0.414000  C.3  1  MOL  -0.127835 
 4  C4  -2.430000  -1.215000  -0.175000  C.3  1  MOL  -0.104186 
 5  C5  -2.723000  1.193000  -0.111000  C.3  1  MOL  -0.104186 
 6  C6  -1.677000  0.089000  0.107000  C.3  1  MOL  0.337518 
 7  C7  4.173000  0.730000  0.539000  C.3  1  MOL  -0.028720 
 8  C8  3.407000  -1.586000  0.096000  C.3  1  MOL  -0.028720 
 9  C9  0.718000  -0.601000  -0.538000  C.3  1  MOL  -0.379129 
 10  N1  3.074000  -0.163000  0.151000  N.am  1  MOL  -0.237110 
 11  N2  -0.463000  0.297000  -0.774000  N.4  1  MOL  -0.989818 
 12  O1  1.591000  1.562000  -0.080000  O.2  1  MOL  -0.625131 
 13  H1  -3.723000  -1.272000  1.571000  H  1  MOL  0.083667 
 14  H2  -4.582000  -1.562000  0.065000  H  1  MOL  0.083667 
 15  H3  -4.869000  0.794000  -0.264000  H  1  MOL  0.083667 
 16  H4  -4.311000  0.983000  1.388000  H  1  MOL  0.083667 
 17  H5  -1.918000  -2.111000  0.189000  H  1  MOL  0.083057 
 18  H6  -2.571000  -1.326000  -1.259000  H  1  MOL  0.083057 
 19  H7  -2.806000  1.407000  -1.186000  H  1  MOL  0.083057 
 20  H8  -2.457000  2.129000  0.387000  H  1  MOL  0.083057 
 21  H9  -1.292000  0.112000  1.132000  H  1  MOL  0.033083 
 22  H10  4.528000  0.461000  1.539000  H  1  MOL  0.049090 
 23  H11  3.814000  1.758000  0.540000  H  1  MOL  0.049090 
 24  H12  4.998000  0.626000  -0.172000  H  1  MOL  0.049090 
 25  H13  4.207000  -1.753000  -0.633000  H  1  MOL  0.049090 
 26  H14  2.548000  -2.193000  -0.189000  H  1  MOL  0.049090 
 27  H15  3.756000  -1.922000  1.078000  H  1  MOL  0.049090 
 28  H16  0.941000  -1.156000  -1.451000  H  1  MOL  0.230469 
 29  H17  0.469000  -1.311000  0.252000  H  1  MOL  0.230469 
 30  H18  -0.755000  0.267000  -1.755000  H  1  MOL  0.487857 
 31  H19  -0.037000  1.249000  -0.592000  H  1  MOL  0.487857 
@<TRIPOS>BOND
     1     1     9 1   
     2     1    10 am  
     3     1    12 2   
     4     2     3 1   
     5     2     4 1   
     6     2    13 1   
     7     2    14 1   
     8     3     5 1   
     9     3    15 1   
    10     3    16 1   
    11     4     6 1   
    12     4    17 1   
    13     4    18 1   
    14     5     6 1   
    15     5    19 1   
    16     5    20 1   
    17     6    11 1   
    18     6    21 1   
    19     7    10 1   
    20     7    22 1   
    21     7    23 1   
    22     7    24 1   
    23     8    10 1   
    24     8    25 1   
    25     8    26 1   
    26     8    27 1   
    27     9    11 1   
    28     9    28 1   
    29     9    29 1   
    30    11    30 1   
    31    11    31 1   
@<TRIPOS>SUBSTRUCTURE
     1 MOL         1 TEMP              0 ****  ****    0 ROOT
