@<TRIPOS>MOLECULE
MOL
   31    31     1     0     0
SMALL
No Charge or Current Charge


@<TRIPOS>ATOM
      1 C1           1.8720     0.3560    -0.1260 C.2        1 MOL       0.000000
      2 C2          -3.7860    -0.9680     0.5210 C.3        1 MOL       0.000000
      3 C3          -4.0430     0.5660     0.4140 C.3        1 MOL       0.000000
      4 C4          -2.4300    -1.2150    -0.1750 C.3        1 MOL       0.000000
      5 C5          -2.7230     1.1930    -0.1110 C.3        1 MOL       0.000000
      6 C6          -1.6770     0.0890     0.1070 C.3        1 MOL       0.000000
      7 C7           4.1730     0.7300     0.5390 C.3        1 MOL       0.000000
      8 C8           3.4070    -1.5860     0.0960 C.3        1 MOL       0.000000
      9 C9           0.7180    -0.6010    -0.5380 C.3        1 MOL       0.000000
     10 N1           3.0740    -0.1630     0.1510 N.am       1 MOL       0.000000
     11 N2          -0.4630     0.2970    -0.7740 N.4        1 MOL       0.000000
     12 O1           1.5910     1.5620    -0.0800 O.2        1 MOL       0.000000
     13 H1          -3.7230    -1.2720     1.5710 H          1 MOL       0.000000
     14 H2          -4.5820    -1.5620     0.0650 H          1 MOL       0.000000
     15 H3          -4.8690     0.7940    -0.2640 H          1 MOL       0.000000
     16 H4          -4.3110     0.9830     1.3880 H          1 MOL       0.000000
     17 H5          -1.9180    -2.1110     0.1890 H          1 MOL       0.000000
     18 H6          -2.5710    -1.3260    -1.2590 H          1 MOL       0.000000
     19 H7          -2.8060     1.4070    -1.1860 H          1 MOL       0.000000
     20 H8          -2.4570     2.1290     0.3870 H          1 MOL       0.000000
     21 H9          -1.2920     0.1120     1.1320 H          1 MOL       0.000000
     22 H10          4.5280     0.4610     1.5390 H          1 MOL       0.000000
     23 H11          3.8140     1.7580     0.5400 H          1 MOL       0.000000
     24 H12          4.9980     0.6260    -0.1720 H          1 MOL       0.000000
     25 H13          4.2070    -1.7530    -0.6330 H          1 MOL       0.000000
     26 H14          2.5480    -2.1930    -0.1890 H          1 MOL       0.000000
     27 H15          3.7560    -1.9220     1.0780 H          1 MOL       0.000000
     28 H16          0.9410    -1.1560    -1.4510 H          1 MOL       0.000000
     29 H17          0.4690    -1.3110     0.2520 H          1 MOL       0.000000
     30 H18         -0.7550     0.2670    -1.7550 H          1 MOL       0.000000
     31 H19         -0.0370     1.2490    -0.5920 H          1 MOL       0.000000
@<TRIPOS>BOND
     1     1     9 1   
     2     1    10 am  
     3     1    12 2   
     4     2     3 1   
     5     2     4 1   
     6     2    13 1   
     7     2    14 1   
     8     3     5 1   
     9     3    15 1   
    10     3    16 1   
    11     4     6 1   
    12     4    17 1   
    13     4    18 1   
    14     5     6 1   
    15     5    19 1   
    16     5    20 1   
    17     6    11 1   
    18     6    21 1   
    19     7    10 1   
    20     7    22 1   
    21     7    23 1   
    22     7    24 1   
    23     8    10 1   
    24     8    25 1   
    25     8    26 1   
    26     8    27 1   
    27     9    11 1   
    28     9    28 1   
    29     9    29 1   
    30    11    30 1   
    31    11    31 1   
@<TRIPOS>SUBSTRUCTURE
     1 MOL         1 TEMP              0 ****  ****    0 ROOT
