@<TRIPOS>MOLECULE
*****
 12 11 0 0 0
SMALL
GASTEIGER

@<TRIPOS>ATOM
      1 C           3.0306   -0.8440    0.8939 C.3     1  UNL1        0.0000
      2 N           2.4744    0.0209   -0.1148 N.am    1  UNL1        0.3186
      3 C           3.2868    0.7422   -0.9577 C.2     1  UNL1        0.2097
      4 C           2.5480    1.5954   -1.9541 C.3     1  UNL1        0.0121
      5 O           4.5124    0.7057   -0.9156 O.2     1  UNL1        0.2761
      6 H           2.2120   -1.3139    1.4437 H       1  UNL1        0.0426
      7 H           3.6492   -0.2542    1.5759 H       1  UNL1        0.0426
      8 H           3.6472   -1.6094    0.4149 H       1  UNL1        0.0426
      9 H           1.4692    0.0926   -0.1972 H       1  UNL1        0.1483
     10 H           1.4638    1.5031   -1.8462 H       1  UNL1        0.0322
     11 H           2.8241    1.2834   -2.9650 H       1  UNL1        0.0322
     12 H           2.8242    2.6423   -1.8019 H       1  UNL1        0.0322
@<TRIPOS>BOND
     1     1     2    1
     2     2     3   am
     3     3     4    1
     4     3     5    2
     5     1     6    1
     6     1     7    1
     7     1     8    1
     8     2     9    1
     9     4    10    1
    10     4    11    1
    11     4    12    1
