@<TRIPOS>MOLECULE
MOL
   21    21     1     0     0
SMALL
No Charge or Current Charge


@<TRIPOS>ATOM
 1  C1  3.291000  -0.756000  -0.001000  C.ar  1  MOL  -0.040895 
 2  C2  3.469000  0.630000  -0.002000  C.ar  1  MOL  -0.241214 
 3  C3  1.998000  -1.268000  0.000000  C.ar  1  MOL  -0.380992 
 4  C4  2.335000  1.436000  -0.001000  C.ar  1  MOL  0.115421 
 5  C5  0.916000  -0.377000  0.001000  C.ar  1  MOL  0.609473 
 6  C6  -2.800000  -0.055000  -0.000000  C.2  1  MOL  0.510929 
 7  C7  -3.687000  1.182000  -0.001000  C.3  1  MOL  -0.313908 
 8  C8  -0.507000  -0.904000  0.003000  C.3  1  MOL  -0.345953 
 9  N1  1.084000  0.951000  0.001000  N.ar  1  MOL  -0.511642 
 10  N2  -1.461000  0.181000  0.004000  N.am  1  MOL  -0.353167 
 11  O1  -3.264000  -1.192000  -0.003000  O.2  1  MOL  -0.514977 
 12  H1  4.147000  -1.425000  -0.002000  H  1  MOL  0.161011 
 13  H2  4.460000  1.073000  -0.003000  H  1  MOL  0.147361 
 14  H3  1.821000  -2.340000  0.001000  H  1  MOL  0.173626 
 15  H4  2.424000  2.520000  -0.001000  H  1  MOL  0.124595 
 16  H5  -3.128000  2.124000  0.002000  H  1  MOL  0.111818 
 17  H6  -4.332000  1.155000  -0.884000  H  1  MOL  0.116842 
 18  H7  -4.337000  1.152000  0.879000  H  1  MOL  0.089295 
 19  H8  -0.668000  -1.549000  -0.873000  H  1  MOL  0.142714 
 20  H9  -0.665000  -1.550000  0.878000  H  1  MOL  0.142714 
 21  H10  -1.066000  1.114000  0.004000  H  1  MOL  0.256949 
@<TRIPOS>BOND
     1     1     2 ar  
     2     1     3 ar  
     3     1    12 1   
     4     2     4 ar  
     5     2    13 1   
     6     3     5 ar  
     7     3    14 1   
     8     4     9 ar  
     9     4    15 1   
    10     5     8 1   
    11     5     9 ar  
    12     6     7 1   
    13     6    10 am  
    14     6    11 2   
    15     7    16 1   
    16     7    17 1   
    17     7    18 1   
    18     8    10 1   
    19     8    19 1   
    20     8    20 1   
    21    10    21 1   
@<TRIPOS>SUBSTRUCTURE
     1 MOL         1 TEMP              0 ****  ****    0 ROOT
