@<TRIPOS>MOLECULE
MOL
   37    37     1     0     0
SMALL
No Charge or Current Charge


@<TRIPOS>ATOM
 1  C1  -1.983000  0.183000  -0.438000  C.2  1  MOL  0.636107 
 2  C2  3.629000  -1.262000  -0.133000  C.3  1  MOL  -0.021922 
 3  C3  3.815000  0.190000  0.327000  C.3  1  MOL  -0.092980 
 4  C4  2.387000  -1.405000  -1.022000  C.3  1  MOL  -0.092980 
 5  C5  2.555000  0.727000  1.022000  C.3  1  MOL  -0.060096 
 6  C6  1.121000  -0.868000  -0.332000  C.3  1  MOL  -0.060096 
 7  C7  1.295000  0.591000  0.137000  C.3  1  MOL  -0.018794 
 8  C8  -3.226000  -1.882000  -0.201000  C.3  1  MOL  -0.071473 
 9  C9  -2.690000  -0.573000  1.831000  C.3  1  MOL  -0.089282 
 10  C10  0.084000  1.154000  0.917000  C.3  1  MOL  -0.034338 
 11  C11  -1.239000  1.417000  0.160000  C.3  1  MOL  0.591879 
 12  N1  -2.589000  -0.689000  0.375000  N.am  1  MOL  -0.344286 
 13  N2  -0.990000  2.269000  -1.073000  N.4  1  MOL  -0.934748 
 14  O1  -1.976000  0.088000  -1.679000  O.2  1  MOL  -0.560519 
 15  H1  4.520000  -1.606000  -0.670000  H  1  MOL  0.047833 
 16  H2  3.524000  -1.913000  0.747000  H  1  MOL  0.047833 
 17  H3  4.670000  0.273000  1.007000  H  1  MOL  0.044491 
 18  H4  4.047000  0.823000  -0.543000  H  1  MOL  0.044491 
 19  H5  2.545000  -0.855000  -1.962000  H  1  MOL  0.044491 
 20  H6  2.232000  -2.453000  -1.302000  H  1  MOL  0.044491 
 21  H7  2.389000  0.169000  1.956000  H  1  MOL  0.034137 
 22  H8  2.699000  1.778000  1.308000  H  1  MOL  0.034137 
 23  H9  0.272000  -0.961000  -1.018000  H  1  MOL  0.034137 
 24  H10  0.895000  -1.491000  0.547000  H  1  MOL  0.034137 
 25  H11  1.479000  1.210000  -0.761000  H  1  MOL  -0.001882 
 26  H12  -2.811000  -2.778000  0.272000  H  1  MOL  0.087465 
 27  H13  -3.038000  -1.908000  -1.272000  H  1  MOL  0.084069 
 28  H14  -4.305000  -1.848000  -0.017000  H  1  MOL  0.088028 
 29  H15  -3.724000  -0.773000  2.128000  H  1  MOL  0.094118 
 30  H16  -2.428000  0.425000  2.179000  H  1  MOL  0.067267 
 31  H17  -2.041000  -1.306000  2.324000  H  1  MOL  0.084095 
 32  H18  -0.142000  0.482000  1.751000  H  1  MOL  0.021512 
 33  H19  0.372000  2.109000  1.378000  H  1  MOL  0.021512 
 34  H20  -1.913000  1.985000  0.805000  H  1  MOL  -0.060669 
 35  H21  -0.012000  2.556000  -1.160000  H  1  MOL  0.419279 
 36  H22  -1.588000  3.098000  -1.124000  H  1  MOL  0.419279 
 37  H23  -1.253000  1.589000  -1.855000  H  1  MOL  0.419279 
@<TRIPOS>BOND
     1     1    11 1   
     2     1    12 am  
     3     1    14 2   
     4     2     3 1   
     5     2     4 1   
     6     2    15 1   
     7     2    16 1   
     8     3     5 1   
     9     3    17 1   
    10     3    18 1   
    11     4     6 1   
    12     4    19 1   
    13     4    20 1   
    14     5     7 1   
    15     5    21 1   
    16     5    22 1   
    17     6     7 1   
    18     6    23 1   
    19     6    24 1   
    20     7    10 1   
    21     7    25 1   
    22     8    12 1   
    23     8    26 1   
    24     8    27 1   
    25     8    28 1   
    26     9    12 1   
    27     9    29 1   
    28     9    30 1   
    29     9    31 1   
    30    10    11 1   
    31    10    32 1   
    32    10    33 1   
    33    11    13 1   
    34    11    34 1   
    35    13    35 1   
    36    13    36 1   
    37    13    37 1   
@<TRIPOS>SUBSTRUCTURE
     1 MOL         1 TEMP              0 ****  ****    0 ROOT
