@<TRIPOS>MOLECULE
MOL
   37    37     1     0     0
SMALL
No Charge or Current Charge


@<TRIPOS>ATOM
      1 C1          -1.9830     0.1830    -0.4380 C.2        1 MOL       0.000000
      2 C2           3.6290    -1.2620    -0.1330 C.3        1 MOL       0.000000
      3 C3           3.8150     0.1900     0.3270 C.3        1 MOL       0.000000
      4 C4           2.3870    -1.4050    -1.0220 C.3        1 MOL       0.000000
      5 C5           2.5550     0.7270     1.0220 C.3        1 MOL       0.000000
      6 C6           1.1210    -0.8680    -0.3320 C.3        1 MOL       0.000000
      7 C7           1.2950     0.5910     0.1370 C.3        1 MOL       0.000000
      8 C8          -3.2260    -1.8820    -0.2010 C.3        1 MOL       0.000000
      9 C9          -2.6900    -0.5730     1.8310 C.3        1 MOL       0.000000
     10 C10          0.0840     1.1540     0.9170 C.3        1 MOL       0.000000
     11 C11         -1.2390     1.4170     0.1600 C.3        1 MOL       0.000000
     12 N1          -2.5890    -0.6890     0.3750 N.am       1 MOL       0.000000
     13 N2          -0.9900     2.2690    -1.0730 N.4        1 MOL       0.000000
     14 O1          -1.9760     0.0880    -1.6790 O.2        1 MOL       0.000000
     15 H1           4.5200    -1.6060    -0.6700 H          1 MOL       0.000000
     16 H2           3.5240    -1.9130     0.7470 H          1 MOL       0.000000
     17 H3           4.6700     0.2730     1.0070 H          1 MOL       0.000000
     18 H4           4.0470     0.8230    -0.5430 H          1 MOL       0.000000
     19 H5           2.5450    -0.8550    -1.9620 H          1 MOL       0.000000
     20 H6           2.2320    -2.4530    -1.3020 H          1 MOL       0.000000
     21 H7           2.3890     0.1690     1.9560 H          1 MOL       0.000000
     22 H8           2.6990     1.7780     1.3080 H          1 MOL       0.000000
     23 H9           0.2720    -0.9610    -1.0180 H          1 MOL       0.000000
     24 H10          0.8950    -1.4910     0.5470 H          1 MOL       0.000000
     25 H11          1.4790     1.2100    -0.7610 H          1 MOL       0.000000
     26 H12         -2.8110    -2.7780     0.2720 H          1 MOL       0.000000
     27 H13         -3.0380    -1.9080    -1.2720 H          1 MOL       0.000000
     28 H14         -4.3050    -1.8480    -0.0170 H          1 MOL       0.000000
     29 H15         -3.7240    -0.7730     2.1280 H          1 MOL       0.000000
     30 H16         -2.4280     0.4250     2.1790 H          1 MOL       0.000000
     31 H17         -2.0410    -1.3060     2.3240 H          1 MOL       0.000000
     32 H18         -0.1420     0.4820     1.7510 H          1 MOL       0.000000
     33 H19          0.3720     2.1090     1.3780 H          1 MOL       0.000000
     34 H20         -1.9130     1.9850     0.8050 H          1 MOL       0.000000
     35 H21         -0.0120     2.5560    -1.1600 H          1 MOL       0.000000
     36 H22         -1.5880     3.0980    -1.1240 H          1 MOL       0.000000
     37 H23         -1.2530     1.5890    -1.8550 H          1 MOL       0.000000
@<TRIPOS>BOND
     1     1    11 1   
     2     1    12 am  
     3     1    14 2   
     4     2     3 1   
     5     2     4 1   
     6     2    15 1   
     7     2    16 1   
     8     3     5 1   
     9     3    17 1   
    10     3    18 1   
    11     4     6 1   
    12     4    19 1   
    13     4    20 1   
    14     5     7 1   
    15     5    21 1   
    16     5    22 1   
    17     6     7 1   
    18     6    23 1   
    19     6    24 1   
    20     7    10 1   
    21     7    25 1   
    22     8    12 1   
    23     8    26 1   
    24     8    27 1   
    25     8    28 1   
    26     9    12 1   
    27     9    29 1   
    28     9    30 1   
    29     9    31 1   
    30    10    11 1   
    31    10    32 1   
    32    10    33 1   
    33    11    13 1   
    34    11    34 1   
    35    13    35 1   
    36    13    36 1   
    37    13    37 1   
@<TRIPOS>SUBSTRUCTURE
     1 MOL         1 TEMP              0 ****  ****    0 ROOT
