@<TRIPOS>MOLECULE
MOL
   23    23     1     0     0
SMALL
No Charge or Current Charge


@<TRIPOS>ATOM
 1  C1  3.557000  0.184000  -0.449000  C.ar  1  MOL  -0.084952 
 2  C2  2.916000  1.253000  0.179000  C.ar  1  MOL  -0.184864 
 3  C3  2.921000  -1.057000  -0.524000  C.ar  1  MOL  -0.184864 
 4  C4  1.644000  1.078000  0.726000  C.ar  1  MOL  -0.125792 
 5  C5  1.652000  -1.233000  0.025000  C.ar  1  MOL  -0.125792 
 6  C6  0.999000  -0.165000  0.658000  C.ar  1  MOL  0.112298 
 7  C7  -1.959000  2.145000  -0.544000  C.3  1  MOL  -0.006820 
 8  C8  -0.375000  -0.338000  1.246000  C.3  1  MOL  -0.333689 
 9  N1  -1.613000  0.811000  -1.034000  N.3  1  MOL  -0.603290 
 10  O1  -1.394000  -1.679000  -0.830000  O.2  1  MOL  -0.477313 
 11  O2  -2.978000  -0.391000  0.722000  O.2  1  MOL  -0.477313 
 12  S1  -1.714000  -0.509000  -0.009000  S.o2  1  MOL  0.848246 
 13  H1  4.548000  0.317000  -0.875000  H  1  MOL  0.131860 
 14  H2  3.405000  2.221000  0.247000  H  1  MOL  0.149923 
 15  H3  3.416000  -1.893000  -1.011000  H  1  MOL  0.149923 
 16  H4  1.153000  1.911000  1.225000  H  1  MOL  0.139487 
 17  H5  1.154000  -2.195000  -0.048000  H  1  MOL  0.139487 
 18  H6  -2.893000  2.073000  0.015000  H  1  MOL  0.080980 
 19  H7  -2.123000  2.795000  -1.408000  H  1  MOL  0.080980 
 20  H8  -1.187000  2.598000  0.096000  H  1  MOL  0.080980 
 21  H9  -0.665000  0.505000  1.878000  H  1  MOL  0.161672 
 22  H10  -0.470000  -1.255000  1.837000  H  1  MOL  0.161672 
 23  H11  -0.784000  0.752000  -1.619000  H  1  MOL  0.367180 
@<TRIPOS>BOND
     1     1     2 ar  
     2     1     3 ar  
     3     1    13 1   
     4     2     4 ar  
     5     2    14 1   
     6     3     5 ar  
     7     3    15 1   
     8     4     6 ar  
     9     4    16 1   
    10     5     6 ar  
    11     5    17 1   
    12     6     8 1   
    13     7     9 1   
    14     7    18 1   
    15     7    19 1   
    16     7    20 1   
    17     8    12 1   
    18     8    21 1   
    19     8    22 1   
    20     9    12 1   
    21     9    23 1   
    22    10    12 2   
    23    11    12 2   
@<TRIPOS>SUBSTRUCTURE
     1 MOL         1 TEMP              0 ****  ****    0 ROOT
