@<TRIPOS>MOLECULE
MOL
   23    23     1     0     0
SMALL
No Charge or Current Charge


@<TRIPOS>ATOM
      1 C1           3.5570     0.1840    -0.4490 C.ar       1 MOL       0.000000
      2 C2           2.9160     1.2530     0.1790 C.ar       1 MOL       0.000000
      3 C3           2.9210    -1.0570    -0.5240 C.ar       1 MOL       0.000000
      4 C4           1.6440     1.0780     0.7260 C.ar       1 MOL       0.000000
      5 C5           1.6520    -1.2330     0.0250 C.ar       1 MOL       0.000000
      6 C6           0.9990    -0.1650     0.6580 C.ar       1 MOL       0.000000
      7 C7          -1.9590     2.1450    -0.5440 C.3        1 MOL       0.000000
      8 C8          -0.3750    -0.3380     1.2460 C.3        1 MOL       0.000000
      9 N1          -1.6130     0.8110    -1.0340 N.3        1 MOL       0.000000
     10 O1          -1.3940    -1.6790    -0.8300 O.2        1 MOL       0.000000
     11 O2          -2.9780    -0.3910     0.7220 O.2        1 MOL       0.000000
     12 S1          -1.7140    -0.5090    -0.0090 S.o2       1 MOL       0.000000
     13 H1           4.5480     0.3170    -0.8750 H          1 MOL       0.000000
     14 H2           3.4050     2.2210     0.2470 H          1 MOL       0.000000
     15 H3           3.4160    -1.8930    -1.0110 H          1 MOL       0.000000
     16 H4           1.1530     1.9110     1.2250 H          1 MOL       0.000000
     17 H5           1.1540    -2.1950    -0.0480 H          1 MOL       0.000000
     18 H6          -2.8930     2.0730     0.0150 H          1 MOL       0.000000
     19 H7          -2.1230     2.7950    -1.4080 H          1 MOL       0.000000
     20 H8          -1.1870     2.5980     0.0960 H          1 MOL       0.000000
     21 H9          -0.6650     0.5050     1.8780 H          1 MOL       0.000000
     22 H10         -0.4700    -1.2550     1.8370 H          1 MOL       0.000000
     23 H11         -0.7840     0.7520    -1.6190 H          1 MOL       0.000000
@<TRIPOS>BOND
     1     1     2 ar  
     2     1     3 ar  
     3     1    13 1   
     4     2     4 ar  
     5     2    14 1   
     6     3     5 ar  
     7     3    15 1   
     8     4     6 ar  
     9     4    16 1   
    10     5     6 ar  
    11     5    17 1   
    12     6     8 1   
    13     7     9 1   
    14     7    18 1   
    15     7    19 1   
    16     7    20 1   
    17     8    12 1   
    18     8    21 1   
    19     8    22 1   
    20     9    12 1   
    21     9    23 1   
    22    10    12 2   
    23    11    12 2   
@<TRIPOS>SUBSTRUCTURE
     1 MOL         1 TEMP              0 ****  ****    0 ROOT
