@<TRIPOS>MOLECULE
MOL
   33    33     1     0     0
SMALL
No Charge or Current Charge


@<TRIPOS>ATOM
 1  C1  4.297000  -1.463000  -0.286000  C.ar  1  MOL  -0.116702 
 2  C2  3.238000  -2.044000  -0.987000  C.ar  1  MOL  -0.154622 
 3  C3  4.029000  -0.622000  0.795000  C.ar  1  MOL  -0.154622 
 4  C4  1.920000  -1.784000  -0.608000  C.ar  1  MOL  -0.113022 
 5  C5  2.709000  -0.360000  1.170000  C.ar  1  MOL  -0.113022 
 6  C6  1.638000  -0.936000  0.474000  C.ar  1  MOL  -0.028478 
 7  C7  0.199000  1.765000  0.044000  C.2  1  MOL  0.596329 
 8  C8  1.996000  3.244000  -0.764000  C.3  1  MOL  -0.006198 
 9  C9  -4.333000  0.172000  -0.896000  C.3  1  MOL  -0.412669 
 10  C10  0.202000  -0.635000  0.848000  C.3  1  MOL  0.000675 
 11  C11  -0.469000  0.388000  -0.114000  C.3  1  MOL  -0.211847 
 12  N1  1.154000  2.063000  -0.874000  N.am  1  MOL  -0.470020 
 13  N2  -1.891000  0.632000  0.157000  N.3  1  MOL  -0.497998 
 14  O1  -0.128000  2.509000  0.965000  O.2  1  MOL  -0.524049 
 15  O2  -3.523000  -1.000000  1.327000  O.2  1  MOL  -0.518639 
 16  O3  -2.385000  -1.631000  -0.874000  O.2  1  MOL  -0.504040 
 17  S1  -2.997000  -0.629000  0.008000  S.o2  1  MOL  0.947437 
 18  H1  5.324000  -1.670000  -0.576000  H  1  MOL  0.132281 
 19  H2  3.438000  -2.710000  -1.823000  H  1  MOL  0.137109 
 20  H3  4.847000  -0.172000  1.352000  H  1  MOL  0.137109 
 21  H4  1.099000  -2.253000  -1.145000  H  1  MOL  0.126129 
 22  H5  2.506000  0.296000  2.013000  H  1  MOL  0.126129 
 23  H6  1.499000  3.945000  -0.092000  H  1  MOL  0.068972 
 24  H7  2.125000  3.709000  -1.746000  H  1  MOL  0.058547 
 25  H8  2.982000  2.996000  -0.353000  H  1  MOL  0.062004 
 26  H9  -5.120000  -0.574000  -1.030000  H  1  MOL  0.187843 
 27  H10  -4.706000  1.012000  -0.308000  H  1  MOL  0.155917 
 28  H11  -3.952000  0.510000  -1.860000  H  1  MOL  0.144151 
 29  H12  -0.391000  -1.553000  0.814000  H  1  MOL  0.062669 
 30  H13  0.143000  -0.235000  1.867000  H  1  MOL  0.062669 
 31  H14  -0.383000  0.024000  -1.141000  H  1  MOL  0.186807 
 32  H15  1.441000  1.331000  -1.509000  H  1  MOL  0.286695 
 33  H16  -2.019000  1.166000  1.017000  H  1  MOL  0.346457 
@<TRIPOS>BOND
     1     1     2 ar  
     2     1     3 ar  
     3     1    18 1   
     4     2     4 ar  
     5     2    19 1   
     6     3     5 ar  
     7     3    20 1   
     8     4     6 ar  
     9     4    21 1   
    10     5     6 ar  
    11     5    22 1   
    12     6    10 1   
    13     7    11 1   
    14     7    12 am  
    15     7    14 2   
    16     8    12 1   
    17     8    23 1   
    18     8    24 1   
    19     8    25 1   
    20     9    17 1   
    21     9    26 1   
    22     9    27 1   
    23     9    28 1   
    24    10    11 1   
    25    10    29 1   
    26    10    30 1   
    27    11    13 1   
    28    11    31 1   
    29    12    32 1   
    30    13    17 1   
    31    13    33 1   
    32    15    17 2   
    33    16    17 2   
@<TRIPOS>SUBSTRUCTURE
     1 MOL         1 TEMP              0 ****  ****    0 ROOT
