@<TRIPOS>MOLECULE
MOL
   33    33     1     0     0
SMALL
No Charge or Current Charge


@<TRIPOS>ATOM
      1 C1           4.2970    -1.4630    -0.2860 C.ar       1 MOL       0.000000
      2 C2           3.2380    -2.0440    -0.9870 C.ar       1 MOL       0.000000
      3 C3           4.0290    -0.6220     0.7950 C.ar       1 MOL       0.000000
      4 C4           1.9200    -1.7840    -0.6080 C.ar       1 MOL       0.000000
      5 C5           2.7090    -0.3600     1.1700 C.ar       1 MOL       0.000000
      6 C6           1.6380    -0.9360     0.4740 C.ar       1 MOL       0.000000
      7 C7           0.1990     1.7650     0.0440 C.2        1 MOL       0.000000
      8 C8           1.9960     3.2440    -0.7640 C.3        1 MOL       0.000000
      9 C9          -4.3330     0.1720    -0.8960 C.3        1 MOL       0.000000
     10 C10          0.2020    -0.6350     0.8480 C.3        1 MOL       0.000000
     11 C11         -0.4690     0.3880    -0.1140 C.3        1 MOL       0.000000
     12 N1           1.1540     2.0630    -0.8740 N.am       1 MOL       0.000000
     13 N2          -1.8910     0.6320     0.1570 N.3        1 MOL       0.000000
     14 O1          -0.1280     2.5090     0.9650 O.2        1 MOL       0.000000
     15 O2          -3.5230    -1.0000     1.3270 O.2        1 MOL       0.000000
     16 O3          -2.3850    -1.6310    -0.8740 O.2        1 MOL       0.000000
     17 S1          -2.9970    -0.6290     0.0080 S.o2       1 MOL       0.000000
     18 H1           5.3240    -1.6700    -0.5760 H          1 MOL       0.000000
     19 H2           3.4380    -2.7100    -1.8230 H          1 MOL       0.000000
     20 H3           4.8470    -0.1720     1.3520 H          1 MOL       0.000000
     21 H4           1.0990    -2.2530    -1.1450 H          1 MOL       0.000000
     22 H5           2.5060     0.2960     2.0130 H          1 MOL       0.000000
     23 H6           1.4990     3.9450    -0.0920 H          1 MOL       0.000000
     24 H7           2.1250     3.7090    -1.7460 H          1 MOL       0.000000
     25 H8           2.9820     2.9960    -0.3530 H          1 MOL       0.000000
     26 H9          -5.1200    -0.5740    -1.0300 H          1 MOL       0.000000
     27 H10         -4.7060     1.0120    -0.3080 H          1 MOL       0.000000
     28 H11         -3.9520     0.5100    -1.8600 H          1 MOL       0.000000
     29 H12         -0.3910    -1.5530     0.8140 H          1 MOL       0.000000
     30 H13          0.1430    -0.2350     1.8670 H          1 MOL       0.000000
     31 H14         -0.3830     0.0240    -1.1410 H          1 MOL       0.000000
     32 H15          1.4410     1.3310    -1.5090 H          1 MOL       0.000000
     33 H16         -2.0190     1.1660     1.0170 H          1 MOL       0.000000
@<TRIPOS>BOND
     1     1     2 ar  
     2     1     3 ar  
     3     1    18 1   
     4     2     4 ar  
     5     2    19 1   
     6     3     5 ar  
     7     3    20 1   
     8     4     6 ar  
     9     4    21 1   
    10     5     6 ar  
    11     5    22 1   
    12     6    10 1   
    13     7    11 1   
    14     7    12 am  
    15     7    14 2   
    16     8    12 1   
    17     8    23 1   
    18     8    24 1   
    19     8    25 1   
    20     9    17 1   
    21     9    26 1   
    22     9    27 1   
    23     9    28 1   
    24    10    11 1   
    25    10    29 1   
    26    10    30 1   
    27    11    13 1   
    28    11    31 1   
    29    12    32 1   
    30    13    17 1   
    31    13    33 1   
    32    15    17 2   
    33    16    17 2   
@<TRIPOS>SUBSTRUCTURE
     1 MOL         1 TEMP              0 ****  ****    0 ROOT
