@<TRIPOS>MOLECULE
MOL
   32    31     1     0     0
SMALL
No Charge or Current Charge


@<TRIPOS>ATOM
 1  C1  1.119000  -0.525000  -0.572000  C.2  1  MOL  0.636107 
 2  C2  2.432000  2.100000  0.048000  C.3  1  MOL  -0.146530 
 3  C3  0.157000  3.199000  0.127000  C.3  1  MOL  -0.146530 
 4  C4  2.753000  -2.314000  -0.354000  C.3  1  MOL  -0.071473 
 5  C5  2.210000  -1.007000  1.653000  C.3  1  MOL  -0.089282 
 6  C6  -1.896000  -2.024000  -0.096000  C.3  1  MOL  -0.412669 
 7  C7  0.305000  0.663000  -0.013000  C.3  1  MOL  -0.266507 
 8  C8  0.968000  2.013000  -0.411000  C.3  1  MOL  0.215584 
 9  N1  -1.045000  0.613000  -0.594000  N.3  1  MOL  -0.497998 
 10  N2  1.940000  -1.257000  0.243000  N.am  1  MOL  -0.344286 
 11  O1  0.985000  -0.787000  -1.770000  O.2  1  MOL  -0.560519 
 12  O2  -3.489000  0.024000  -0.569000  O.2  1  MOL  -0.518639 
 13  O3  -2.127000  -0.005000  1.602000  O.2  1  MOL  -0.504040 
 14  S1  -2.259000  -0.268000  0.166000  S.o2  1  MOL  0.947437 
 15  H1  2.510000  2.051000  1.142000  H  1  MOL  0.038866 
 16  H2  3.052000  1.304000  -0.377000  H  1  MOL  0.038866 
 17  H3  2.865000  3.056000  -0.266000  H  1  MOL  0.038866 
 18  H4  0.171000  3.217000  1.225000  H  1  MOL  0.038866 
 19  H5  -0.886000  3.147000  -0.195000  H  1  MOL  0.038866 
 20  H6  0.585000  4.143000  -0.228000  H  1  MOL  0.038866 
 21  H7  3.819000  -2.060000  -0.292000  H  1  MOL  0.087465 
 22  H8  2.466000  -2.426000  -1.398000  H  1  MOL  0.084069 
 23  H9  2.592000  -3.258000  0.181000  H  1  MOL  0.088028 
 24  H10  2.168000  -1.955000  2.203000  H  1  MOL  0.094118 
 25  H11  1.477000  -0.334000  2.092000  H  1  MOL  0.067267 
 26  H12  3.210000  -0.576000  1.794000  H  1  MOL  0.084095 
 27  H13  -2.713000  -2.586000  0.361000  H  1  MOL  0.187843 
 28  H14  -1.850000  -2.223000  -1.168000  H  1  MOL  0.155917 
 29  H15  -0.948000  -2.275000  0.384000  H  1  MOL  0.144151 
 30  H16  0.173000  0.636000  1.069000  H  1  MOL  0.182442 
 31  H17  0.958000  2.046000  -1.510000  H  1  MOL  0.004301 
 32  H18  -1.011000  0.407000  -1.594000  H  1  MOL  0.346457 
@<TRIPOS>BOND
     1     1     7 1   
     2     1    10 am  
     3     1    11 2   
     4     2     8 1   
     5     2    15 1   
     6     2    16 1   
     7     2    17 1   
     8     3     8 1   
     9     3    18 1   
    10     3    19 1   
    11     3    20 1   
    12     4    10 1   
    13     4    21 1   
    14     4    22 1   
    15     4    23 1   
    16     5    10 1   
    17     5    24 1   
    18     5    25 1   
    19     5    26 1   
    20     6    14 1   
    21     6    27 1   
    22     6    28 1   
    23     6    29 1   
    24     7     8 1   
    25     7     9 1   
    26     7    30 1   
    27     8    31 1   
    28     9    14 1   
    29     9    32 1   
    30    12    14 2   
    31    13    14 2   
@<TRIPOS>SUBSTRUCTURE
     1 MOL         1 TEMP              0 ****  ****    0 ROOT
