@<TRIPOS>MOLECULE
MOL
   32    31     1     0     0
SMALL
No Charge or Current Charge


@<TRIPOS>ATOM
      1 C1           1.1190    -0.5250    -0.5720 C.2        1 MOL       0.000000
      2 C2           2.4320     2.1000     0.0480 C.3        1 MOL       0.000000
      3 C3           0.1570     3.1990     0.1270 C.3        1 MOL       0.000000
      4 C4           2.7530    -2.3140    -0.3540 C.3        1 MOL       0.000000
      5 C5           2.2100    -1.0070     1.6530 C.3        1 MOL       0.000000
      6 C6          -1.8960    -2.0240    -0.0960 C.3        1 MOL       0.000000
      7 C7           0.3050     0.6630    -0.0130 C.3        1 MOL       0.000000
      8 C8           0.9680     2.0130    -0.4110 C.3        1 MOL       0.000000
      9 N1          -1.0450     0.6130    -0.5940 N.3        1 MOL       0.000000
     10 N2           1.9400    -1.2570     0.2430 N.am       1 MOL       0.000000
     11 O1           0.9850    -0.7870    -1.7700 O.2        1 MOL       0.000000
     12 O2          -3.4890     0.0240    -0.5690 O.2        1 MOL       0.000000
     13 O3          -2.1270    -0.0050     1.6020 O.2        1 MOL       0.000000
     14 S1          -2.2590    -0.2680     0.1660 S.o2       1 MOL       0.000000
     15 H1           2.5100     2.0510     1.1420 H          1 MOL       0.000000
     16 H2           3.0520     1.3040    -0.3770 H          1 MOL       0.000000
     17 H3           2.8650     3.0560    -0.2660 H          1 MOL       0.000000
     18 H4           0.1710     3.2170     1.2250 H          1 MOL       0.000000
     19 H5          -0.8860     3.1470    -0.1950 H          1 MOL       0.000000
     20 H6           0.5850     4.1430    -0.2280 H          1 MOL       0.000000
     21 H7           3.8190    -2.0600    -0.2920 H          1 MOL       0.000000
     22 H8           2.4660    -2.4260    -1.3980 H          1 MOL       0.000000
     23 H9           2.5920    -3.2580     0.1810 H          1 MOL       0.000000
     24 H10          2.1680    -1.9550     2.2030 H          1 MOL       0.000000
     25 H11          1.4770    -0.3340     2.0920 H          1 MOL       0.000000
     26 H12          3.2100    -0.5760     1.7940 H          1 MOL       0.000000
     27 H13         -2.7130    -2.5860     0.3610 H          1 MOL       0.000000
     28 H14         -1.8500    -2.2230    -1.1680 H          1 MOL       0.000000
     29 H15         -0.9480    -2.2750     0.3840 H          1 MOL       0.000000
     30 H16          0.1730     0.6360     1.0690 H          1 MOL       0.000000
     31 H17          0.9580     2.0460    -1.5100 H          1 MOL       0.000000
     32 H18         -1.0110     0.4070    -1.5940 H          1 MOL       0.000000
@<TRIPOS>BOND
     1     1     7 1   
     2     1    10 am  
     3     1    11 2   
     4     2     8 1   
     5     2    15 1   
     6     2    16 1   
     7     2    17 1   
     8     3     8 1   
     9     3    18 1   
    10     3    19 1   
    11     3    20 1   
    12     4    10 1   
    13     4    21 1   
    14     4    22 1   
    15     4    23 1   
    16     5    10 1   
    17     5    24 1   
    18     5    25 1   
    19     5    26 1   
    20     6    14 1   
    21     6    27 1   
    22     6    28 1   
    23     6    29 1   
    24     7     8 1   
    25     7     9 1   
    26     7    30 1   
    27     8    31 1   
    28     9    14 1   
    29     9    32 1   
    30    12    14 2   
    31    13    14 2   
@<TRIPOS>SUBSTRUCTURE
     1 MOL         1 TEMP              0 ****  ****    0 ROOT
