@<TRIPOS>MOLECULE
MOL
   28    27     1     0     0
SMALL
No Charge or Current Charge


@<TRIPOS>ATOM
      1 C1           2.1440     0.0370     0.4730 C.2        1 MOL       0.000000
      2 C2          -0.9210    -0.4050     0.0420 C.2        1 MOL       0.000000
      3 C3           3.4410    -0.7180     0.2100 C.3        1 MOL       0.000000
      4 C4          -0.1410     2.0190     0.5100 C.3        1 MOL       0.000000
      5 C5          -3.1220    -1.3150     0.5540 C.3        1 MOL       0.000000
      6 C6          -3.0180     0.8750    -0.5460 C.3        1 MOL       0.000000
      7 C7           1.5390    -0.3820    -1.8930 C.3        1 MOL       0.000000
      8 C8          -0.0320     0.7900    -0.4150 C.3        1 MOL       0.000000
      9 N1          -2.2870    -0.2470     0.0190 N.am       1 MOL       0.000000
     10 N2           1.3410     0.3170    -0.6250 N.am       1 MOL       0.000000
     11 O1           1.8690     0.4090     1.6060 O.2        1 MOL       0.000000
     12 O2          -0.4010    -1.4530     0.4090 O.2        1 MOL       0.000000
     13 H1           4.0760    -0.2120    -0.5270 H          1 MOL       0.000000
     14 H2           3.9750    -0.7770     1.1590 H          1 MOL       0.000000
     15 H3           3.2450    -1.7330    -0.1520 H          1 MOL       0.000000
     16 H4          -0.0120     1.7460     1.5550 H          1 MOL       0.000000
     17 H5           0.6420     2.7360     0.2470 H          1 MOL       0.000000
     18 H6          -1.1090     2.5120     0.3760 H          1 MOL       0.000000
     19 H7          -3.8110    -0.9130     1.3080 H          1 MOL       0.000000
     20 H8          -2.4770    -2.0660     1.0070 H          1 MOL       0.000000
     21 H9          -3.7170    -1.7810    -0.2440 H          1 MOL       0.000000
     22 H10         -3.8160     0.4960    -1.1970 H          1 MOL       0.000000
     23 H11         -2.3750     1.5130    -1.1500 H          1 MOL       0.000000
     24 H12         -3.4850     1.4900     0.2360 H          1 MOL       0.000000
     25 H13          1.0650    -1.3720    -1.8940 H          1 MOL       0.000000
     26 H14          2.6010    -0.5000    -2.1090 H          1 MOL       0.000000
     27 H15          1.1060     0.2150    -2.7030 H          1 MOL       0.000000
     28 H16         -0.3720     1.1030    -1.4100 H          1 MOL       0.000000
@<TRIPOS>BOND
     1     1     3 1   
     2     1    10 am  
     3     1    11 2   
     4     2     8 1   
     5     2     9 am  
     6     2    12 2   
     7     3    13 1   
     8     3    14 1   
     9     3    15 1   
    10     4     8 1   
    11     4    16 1   
    12     4    17 1   
    13     4    18 1   
    14     5     9 1   
    15     5    19 1   
    16     5    20 1   
    17     5    21 1   
    18     6     9 1   
    19     6    22 1   
    20     6    23 1   
    21     6    24 1   
    22     7    10 1   
    23     7    25 1   
    24     7    26 1   
    25     7    27 1   
    26     8    10 1   
    27     8    28 1   
@<TRIPOS>SUBSTRUCTURE
     1 MOL         1 TEMP              0 ****  ****    0 ROOT
