@<TRIPOS>MOLECULE
MOL
   37    37     1     0     0
SMALL
No Charge or Current Charge


@<TRIPOS>ATOM
 1  C1  2.380000  0.496000  -0.093000  C.2  1  MOL  0.983980 
 2  C2  -4.118000  -0.407000  -0.581000  C.3  1  MOL  -0.072458 
 3  C3  -3.794000  0.858000  0.228000  C.3  1  MOL  -0.092362 
 4  C4  -3.306000  -1.614000  -0.091000  C.3  1  MOL  -0.092362 
 5  C5  -2.282000  1.146000  0.225000  C.3  1  MOL  -0.080266 
 6  C6  -1.796000  -1.318000  -0.072000  C.3  1  MOL  -0.080266 
 7  C7  -1.478000  -0.058000  0.758000  C.3  1  MOL  0.011373 
 8  C8  4.444000  -0.729000  0.236000  C.3  1  MOL  -0.028720 
 9  C9  2.396000  -1.985000  -0.354000  C.3  1  MOL  -0.028720 
 10  C10  0.040000  0.192000  0.927000  C.3  1  MOL  -0.055176 
 11  C11  0.842000  0.557000  -0.339000  C.3  1  MOL  -0.400385 
 12  N1  3.008000  -0.686000  -0.075000  N.am  1  MOL  -0.237110 
 13  N2  0.636000  2.022000  -0.683000  N.4  1  MOL  -0.830654 
 14  O1  2.939000  1.588000  0.109000  O.2  1  MOL  -0.625131 
 15  H1  -5.189000  -0.625000  -0.521000  H  1  MOL  0.058389 
 16  H2  -3.898000  -0.224000  -1.643000  H  1  MOL  0.058389 
 17  H3  -4.338000  1.721000  -0.172000  H  1  MOL  0.055266 
 18  H4  -4.129000  0.730000  1.267000  H  1  MOL  0.055266 
 19  H5  -3.627000  -1.883000  0.925000  H  1  MOL  0.055266 
 20  H6  -3.503000  -2.488000  -0.721000  H  1  MOL  0.055266 
 21  H7  -1.989000  1.363000  -0.817000  H  1  MOL  0.041747 
 22  H8  -2.077000  2.046000  0.828000  H  1  MOL  0.041747 
 23  H9  -1.251000  -2.181000  0.334000  H  1  MOL  0.041747 
 24  H10  -1.450000  -1.182000  -1.110000  H  1  MOL  0.041747 
 25  H11  -1.836000  -0.247000  1.780000  H  1  MOL  0.053623 
 26  H12  4.609000  -1.373000  1.106000  H  1  MOL  0.049090 
 27  H13  4.795000  0.278000  0.449000  H  1  MOL  0.049090 
 28  H14  4.991000  -1.139000  -0.619000  H  1  MOL  0.049090 
 29  H15  2.936000  -2.472000  -1.172000  H  1  MOL  0.049090 
 30  H16  1.349000  -1.891000  -0.641000  H  1  MOL  0.049090 
 31  H17  2.458000  -2.627000  0.532000  H  1  MOL  0.049090 
 32  H18  0.220000  0.979000  1.673000  H  1  MOL  0.089917 
 33  H19  0.491000  -0.714000  1.347000  H  1  MOL  0.089917 
 34  H20  0.530000  -0.029000  -1.205000  H  1  MOL  0.259417 
 35  H21  -0.203000  2.415000  -0.248000  H  1  MOL  0.445338 
 36  H22  0.590000  2.196000  -1.692000  H  1  MOL  0.445338 
 37  H23  1.530000  2.458000  -0.306000  H  1  MOL  0.445338 
@<TRIPOS>BOND
     1     1    11 1   
     2     1    12 am  
     3     1    14 2   
     4     2     3 1   
     5     2     4 1   
     6     2    15 1   
     7     2    16 1   
     8     3     5 1   
     9     3    17 1   
    10     3    18 1   
    11     4     6 1   
    12     4    19 1   
    13     4    20 1   
    14     5     7 1   
    15     5    21 1   
    16     5    22 1   
    17     6     7 1   
    18     6    23 1   
    19     6    24 1   
    20     7    10 1   
    21     7    25 1   
    22     8    12 1   
    23     8    26 1   
    24     8    27 1   
    25     8    28 1   
    26     9    12 1   
    27     9    29 1   
    28     9    30 1   
    29     9    31 1   
    30    10    11 1   
    31    10    32 1   
    32    10    33 1   
    33    11    13 1   
    34    11    34 1   
    35    13    35 1   
    36    13    36 1   
    37    13    37 1   
@<TRIPOS>SUBSTRUCTURE
     1 MOL         1 TEMP              0 ****  ****    0 ROOT
