@<TRIPOS>MOLECULE
MOL
   37    37     1     0     0
SMALL
No Charge or Current Charge


@<TRIPOS>ATOM
      1 C1           2.3800     0.4960    -0.0930 C.2        1 MOL       0.000000
      2 C2          -4.1180    -0.4070    -0.5810 C.3        1 MOL       0.000000
      3 C3          -3.7940     0.8580     0.2280 C.3        1 MOL       0.000000
      4 C4          -3.3060    -1.6140    -0.0910 C.3        1 MOL       0.000000
      5 C5          -2.2820     1.1460     0.2250 C.3        1 MOL       0.000000
      6 C6          -1.7960    -1.3180    -0.0720 C.3        1 MOL       0.000000
      7 C7          -1.4780    -0.0580     0.7580 C.3        1 MOL       0.000000
      8 C8           4.4440    -0.7290     0.2360 C.3        1 MOL       0.000000
      9 C9           2.3960    -1.9850    -0.3540 C.3        1 MOL       0.000000
     10 C10          0.0400     0.1920     0.9270 C.3        1 MOL       0.000000
     11 C11          0.8420     0.5570    -0.3390 C.3        1 MOL       0.000000
     12 N1           3.0080    -0.6860    -0.0750 N.am       1 MOL       0.000000
     13 N2           0.6360     2.0220    -0.6830 N.4        1 MOL       0.000000
     14 O1           2.9390     1.5880     0.1090 O.2        1 MOL       0.000000
     15 H1          -5.1890    -0.6250    -0.5210 H          1 MOL       0.000000
     16 H2          -3.8980    -0.2240    -1.6430 H          1 MOL       0.000000
     17 H3          -4.3380     1.7210    -0.1720 H          1 MOL       0.000000
     18 H4          -4.1290     0.7300     1.2670 H          1 MOL       0.000000
     19 H5          -3.6270    -1.8830     0.9250 H          1 MOL       0.000000
     20 H6          -3.5030    -2.4880    -0.7210 H          1 MOL       0.000000
     21 H7          -1.9890     1.3630    -0.8170 H          1 MOL       0.000000
     22 H8          -2.0770     2.0460     0.8280 H          1 MOL       0.000000
     23 H9          -1.2510    -2.1810     0.3340 H          1 MOL       0.000000
     24 H10         -1.4500    -1.1820    -1.1100 H          1 MOL       0.000000
     25 H11         -1.8360    -0.2470     1.7800 H          1 MOL       0.000000
     26 H12          4.6090    -1.3730     1.1060 H          1 MOL       0.000000
     27 H13          4.7950     0.2780     0.4490 H          1 MOL       0.000000
     28 H14          4.9910    -1.1390    -0.6190 H          1 MOL       0.000000
     29 H15          2.9360    -2.4720    -1.1720 H          1 MOL       0.000000
     30 H16          1.3490    -1.8910    -0.6410 H          1 MOL       0.000000
     31 H17          2.4580    -2.6270     0.5320 H          1 MOL       0.000000
     32 H18          0.2200     0.9790     1.6730 H          1 MOL       0.000000
     33 H19          0.4910    -0.7140     1.3470 H          1 MOL       0.000000
     34 H20          0.5300    -0.0290    -1.2050 H          1 MOL       0.000000
     35 H21         -0.2030     2.4150    -0.2480 H          1 MOL       0.000000
     36 H22          0.5900     2.1960    -1.6920 H          1 MOL       0.000000
     37 H23          1.5300     2.4580    -0.3060 H          1 MOL       0.000000
@<TRIPOS>BOND
     1     1    11 1   
     2     1    12 am  
     3     1    14 2   
     4     2     3 1   
     5     2     4 1   
     6     2    15 1   
     7     2    16 1   
     8     3     5 1   
     9     3    17 1   
    10     3    18 1   
    11     4     6 1   
    12     4    19 1   
    13     4    20 1   
    14     5     7 1   
    15     5    21 1   
    16     5    22 1   
    17     6     7 1   
    18     6    23 1   
    19     6    24 1   
    20     7    10 1   
    21     7    25 1   
    22     8    12 1   
    23     8    26 1   
    24     8    27 1   
    25     8    28 1   
    26     9    12 1   
    27     9    29 1   
    28     9    30 1   
    29     9    31 1   
    30    10    11 1   
    31    10    32 1   
    32    10    33 1   
    33    11    13 1   
    34    11    34 1   
    35    13    35 1   
    36    13    36 1   
    37    13    37 1   
@<TRIPOS>SUBSTRUCTURE
     1 MOL         1 TEMP              0 ****  ****    0 ROOT
