@<TRIPOS>MOLECULE
MOL
   25    25     1     0     0
SMALL
No Charge or Current Charge


@<TRIPOS>ATOM
 1  C1  -2.161000  -1.760000  -0.255000  C.ar  1  MOL  -0.008297 
 2  C2  -2.905000  -0.700000  -0.777000  C.ar  1  MOL  -0.156620 
 3  C3  -1.000000  -1.480000  0.456000  C.ar  1  MOL  -0.187404 
 4  C4  -2.457000  0.589000  -0.570000  C.ar  1  MOL  -0.024336 
 5  C5  -0.573000  -0.167000  0.650000  C.ar  1  MOL  0.270855 
 6  C6  2.293000  -0.003000  -0.370000  C.2  1  MOL  0.419930 
 7  C7  3.604000  -0.540000  -0.896000  C.3  1  MOL  -0.016420 
 8  C8  -0.882000  2.263000  0.247000  C.3  1  MOL  -0.130718 
 9  C9  0.690000  0.102000  1.458000  C.3  1  MOL  -0.257090 
 10  N1  -1.320000  0.847000  0.129000  N.pl3  1  MOL  0.018449 
 11  N2  1.854000  -0.505000  0.834000  N.am  1  MOL  -0.166421 
 12  O1  1.620000  0.836000  -0.960000  O.2  1  MOL  -0.497640 
 13  H1  -2.484000  -2.786000  -0.397000  H  1  MOL  0.198329 
 14  H2  -3.817000  -0.861000  -1.339000  H  1  MOL  0.185599 
 15  H3  -0.396000  -2.280000  0.870000  H  1  MOL  0.159101 
 16  H4  -2.983000  1.453000  -0.955000  H  1  MOL  0.208208 
 17  H5  3.484000  -0.789000  -1.954000  H  1  MOL  0.031380 
 18  H6  4.361000  0.249000  -0.831000  H  1  MOL  0.031380 
 19  H7  3.963000  -1.419000  -0.354000  H  1  MOL  0.031380 
 20  H8  -0.895000  2.572000  1.293000  H  1  MOL  0.114413 
 21  H9  0.119000  2.336000  -0.180000  H  1  MOL  0.114413 
 22  H10  -1.577000  2.884000  -0.316000  H  1  MOL  0.114413 
 23  H11  0.846000  1.171000  1.609000  H  1  MOL  0.161379 
 24  H12  0.561000  -0.355000  2.444000  H  1  MOL  0.161379 
 25  H13  2.460000  -1.087000  1.397000  H  1  MOL  0.224339 
@<TRIPOS>BOND
     1    1    2 ar  
     2    1    3 ar  
     3    1   13 1   
     4    2    4 ar  
     5    2   14 1   
     6    3    5 ar  
     7    3   15 1   
     8    4   10 1   
     9    4   16 1   
    10    5    9 1   
    11    5   10 2   
    12    6    7 1   
    13    6   11 am  
    14    6   12 2   
    15    7   17 1   
    16    7   18 1   
    17    7   19 1   
    18    8   10 1   
    19    8   20 1   
    20    8   21 1   
    21    8   22 1   
    22    9   11 1   
    23    9   23 1   
    24    9   24 1   
    25   11   25 1   
@<TRIPOS>SUBSTRUCTURE
     1 MOL         1 TEMP              0 ****  ****    0 ROOT
