@<TRIPOS>MOLECULE
*****
 22 21 0 0 0
SMALL
GASTEIGER

@<TRIPOS>ATOM
      1 C           1.1795   -2.1279   -0.9933 C.3     1  UNL1        0.0001
      2 N           2.6092   -1.9914   -0.9334 N.am    1  UNL1        0.3169
      3 C           3.2096   -0.7463   -0.9875 C.2     1  UNL1        0.2329
      4 O           2.5709    0.3019   -0.9372 O.2     1  UNL1        0.2738
      5 C           4.7530   -0.7864   -0.9438 C.3     1  UNL1        0.0965
      6 H           5.1329    0.2289   -1.1090 H       1  UNL1        0.0592
      7 C           5.1989   -1.3020    0.4241 C.3     1  UNL1        0.0381
      8 N           5.2773   -1.6610   -1.9987 N.am    1  UNL1        0.3045
      9 C           5.2218   -1.2533   -3.3159 C.2     1  UNL1        0.2105
     10 C           5.9256   -2.1684   -4.2811 C.3     1  UNL1        0.0122
     11 O           4.6223   -0.2528   -3.6958 O.2     1  UNL1        0.2761
     12 H           0.9259   -3.1873   -0.9145 H       1  UNL1        0.0426
     13 H           0.8218   -1.7259   -1.9448 H       1  UNL1        0.0426
     14 H           0.7252   -1.5716   -0.1691 H       1  UNL1        0.0426
     15 H           3.1942   -2.8127   -1.0041 H       1  UNL1        0.1484
     16 H           4.8002   -0.6782    1.2307 H       1  UNL1        0.0252
     17 H           6.2911   -1.3135    0.5014 H       1  UNL1        0.0252
     18 H           4.8534   -2.3280    0.5996 H       1  UNL1        0.0252
     19 H           6.0190   -2.3024   -1.7514 H       1  UNL1        0.1494
     20 H           6.5743   -2.8809   -3.7652 H       1  UNL1        0.0322
     21 H           6.5417   -1.5709   -4.9591 H       1  UNL1        0.0322
     22 H           5.1775   -2.7211   -4.8557 H       1  UNL1        0.0322
@<TRIPOS>BOND
     1     1     2    1
     2     2     3   am
     3     3     4    2
     4     3     5    1
     5     5     6    1
     6     5     7    1
     7     5     8    1
     8     8     9   am
     9     9    10    1
    10     9    11    2
    11     1    12    1
    12     1    13    1
    13     1    14    1
    14     2    15    1
    15     7    16    1
    16     7    17    1
    17     7    18    1
    18     8    19    1
    19    10    20    1
    20    10    21    1
    21    10    22    1
