@<TRIPOS>MOLECULE
MOL
   42    42     1     0     0
SMALL
No Charge or Current Charge


@<TRIPOS>ATOM
 1  C1  0.545000  1.736000  -0.345000  C.2  1  MOL  0.636107 
 2  C2  3.687000  -1.764000  -0.190000  C.2  1  MOL  0.735292 
 3  C3  -4.252000  -1.509000  -0.406000  C.3  1  MOL  0.009958 
 4  C4  -3.304000  -2.537000  0.226000  C.3  1  MOL  0.029158 
 5  C5  -3.470000  -0.469000  -1.220000  C.3  1  MOL  0.029158 
 6  C6  -2.212000  -1.857000  1.065000  C.3  1  MOL  0.010699 
 7  C7  -2.378000  0.213000  -0.379000  C.3  1  MOL  0.010699 
 8  C8  -1.413000  -0.810000  0.258000  C.3  1  MOL  0.048889 
 9  C9  -0.131000  4.056000  -0.569000  C.3  1  MOL  -0.071473 
 10  C10  0.276000  3.176000  1.693000  C.3  1  MOL  -0.089282 
 11  C11  2.166000  -1.705000  0.182000  C.3  1  MOL  -0.079575 
 12  C12  -0.347000  -0.174000  1.180000  C.3  1  MOL  -0.093848 
 13  C13  0.879000  0.514000  0.536000  C.3  1  MOL  -0.079498 
 14  N1  0.265000  2.915000  0.255000  N.am  1  MOL  -0.344286 
 15  N2  1.646000  -0.410000  -0.365000  N.4  1  MOL  -0.049325 
 16  O1  4.275000  -2.825000  0.073000  O.co2  1  MOL  -0.693378 
 17  O2  0.534000  1.576000  -1.574000  O.2  1  MOL  -0.560519 
 18  O3  4.130000  -0.693000  -0.704000  O.co2  1  MOL  -0.713239 
 19  H1  -4.991000  -2.013000  -1.041000  H  1  MOL  -0.007688 
 20  H2  -4.816000  -0.998000  0.389000  H  1  MOL  -0.007688 
 21  H3  -3.865000  -3.244000  0.850000  H  1  MOL  -0.000691 
 22  H4  -2.830000  -3.130000  -0.570000  H  1  MOL  -0.000691 
 23  H5  -3.003000  -0.963000  -2.085000  H  1  MOL  -0.000691 
 24  H6  -4.151000  0.290000  -1.625000  H  1  MOL  -0.000691 
 25  H7  -2.675000  -1.358000  1.930000  H  1  MOL  -0.010078 
 26  H8  -1.525000  -2.611000  1.471000  H  1  MOL  -0.010078 
 27  H9  -1.828000  0.920000  -1.007000  H  1  MOL  -0.010078 
 28  H10  -2.851000  0.797000  0.425000  H  1  MOL  -0.010078 
 29  H11  -0.910000  -1.353000  -0.558000  H  1  MOL  -0.015052 
 30  H12  -1.129000  4.399000  -0.273000  H  1  MOL  0.087465 
 31  H13  -0.141000  3.754000  -1.614000  H  1  MOL  0.084069 
 32  H14  0.578000  4.880000  -0.429000  H  1  MOL  0.088028 
 33  H15  0.855000  4.084000  1.886000  H  1  MOL  0.094118 
 34  H16  0.731000  2.361000  2.252000  H  1  MOL  0.067267 
 35  H17  -0.745000  3.329000  2.062000  H  1  MOL  0.084095 
 36  H18  2.056000  -1.716000  1.268000  H  1  MOL  0.078421 
 37  H19  1.610000  -2.543000  -0.238000  H  1  MOL  0.078421 
 38  H20  -0.829000  0.562000  1.834000  H  1  MOL  0.064172 
 39  H21  0.044000  -0.948000  1.850000  H  1  MOL  0.064172 
 40  H22  1.581000  0.786000  1.327000  H  1  MOL  0.102281 
 41  H23  2.570000  0.021000  -0.667000  H  1  MOL  0.222730 
 42  H24  1.107000  -0.526000  -1.229000  H  1  MOL  0.222730 
@<TRIPOS>BOND
     1     1    13 1   
     2     1    14 am  
     3     1    17 2   
     4     2    11 1   
     5     2    16 1   
     6     2    18 1   
     7     3     4 1   
     8     3     5 1   
     9     3    19 1   
    10     3    20 1   
    11     4     6 1   
    12     4    21 1   
    13     4    22 1   
    14     5     7 1   
    15     5    23 1   
    16     5    24 1   
    17     6     8 1   
    18     6    25 1   
    19     6    26 1   
    20     7     8 1   
    21     7    27 1   
    22     7    28 1   
    23     8    12 1   
    24     8    29 1   
    25     9    14 1   
    26     9    30 1   
    27     9    31 1   
    28     9    32 1   
    29    10    14 1   
    30    10    33 1   
    31    10    34 1   
    32    10    35 1   
    33    11    15 1   
    34    11    36 1   
    35    11    37 1   
    36    12    13 1   
    37    12    38 1   
    38    12    39 1   
    39    13    15 1   
    40    13    40 1   
    41    15    41 1   
    42    15    42 1   
@<TRIPOS>SUBSTRUCTURE
     1 MOL         1 TEMP              0 ****  ****    0 ROOT
