@<TRIPOS>MOLECULE
MOL
   42    42     1     0     0
SMALL
No Charge or Current Charge


@<TRIPOS>ATOM
      1 C1           0.5450     1.7360    -0.3450 C.2        1 MOL       0.000000
      2 C2           3.6870    -1.7640    -0.1900 C.2        1 MOL       0.000000
      3 C3          -4.2520    -1.5090    -0.4060 C.3        1 MOL       0.000000
      4 C4          -3.3040    -2.5370     0.2260 C.3        1 MOL       0.000000
      5 C5          -3.4700    -0.4690    -1.2200 C.3        1 MOL       0.000000
      6 C6          -2.2120    -1.8570     1.0650 C.3        1 MOL       0.000000
      7 C7          -2.3780     0.2130    -0.3790 C.3        1 MOL       0.000000
      8 C8          -1.4130    -0.8100     0.2580 C.3        1 MOL       0.000000
      9 C9          -0.1310     4.0560    -0.5690 C.3        1 MOL       0.000000
     10 C10          0.2760     3.1760     1.6930 C.3        1 MOL       0.000000
     11 C11          2.1660    -1.7050     0.1820 C.3        1 MOL       0.000000
     12 C12         -0.3470    -0.1740     1.1800 C.3        1 MOL       0.000000
     13 C13          0.8790     0.5140     0.5360 C.3        1 MOL       0.000000
     14 N1           0.2650     2.9150     0.2550 N.am       1 MOL       0.000000
     15 N2           1.6460    -0.4100    -0.3650 N.4        1 MOL       0.000000
     16 O1           4.2750    -2.8250     0.0730 O.co2      1 MOL       0.000000
     17 O2           0.5340     1.5760    -1.5740 O.2        1 MOL       0.000000
     18 O3           4.1300    -0.6930    -0.7040 O.co2      1 MOL       0.000000
     19 H1          -4.9910    -2.0130    -1.0410 H          1 MOL       0.000000
     20 H2          -4.8160    -0.9980     0.3890 H          1 MOL       0.000000
     21 H3          -3.8650    -3.2440     0.8500 H          1 MOL       0.000000
     22 H4          -2.8300    -3.1300    -0.5700 H          1 MOL       0.000000
     23 H5          -3.0030    -0.9630    -2.0850 H          1 MOL       0.000000
     24 H6          -4.1510     0.2900    -1.6250 H          1 MOL       0.000000
     25 H7          -2.6750    -1.3580     1.9300 H          1 MOL       0.000000
     26 H8          -1.5250    -2.6110     1.4710 H          1 MOL       0.000000
     27 H9          -1.8280     0.9200    -1.0070 H          1 MOL       0.000000
     28 H10         -2.8510     0.7970     0.4250 H          1 MOL       0.000000
     29 H11         -0.9100    -1.3530    -0.5580 H          1 MOL       0.000000
     30 H12         -1.1290     4.3990    -0.2730 H          1 MOL       0.000000
     31 H13         -0.1410     3.7540    -1.6140 H          1 MOL       0.000000
     32 H14          0.5780     4.8800    -0.4290 H          1 MOL       0.000000
     33 H15          0.8550     4.0840     1.8860 H          1 MOL       0.000000
     34 H16          0.7310     2.3610     2.2520 H          1 MOL       0.000000
     35 H17         -0.7450     3.3290     2.0620 H          1 MOL       0.000000
     36 H18          2.0560    -1.7160     1.2680 H          1 MOL       0.000000
     37 H19          1.6100    -2.5430    -0.2380 H          1 MOL       0.000000
     38 H20         -0.8290     0.5620     1.8340 H          1 MOL       0.000000
     39 H21          0.0440    -0.9480     1.8500 H          1 MOL       0.000000
     40 H22          1.5810     0.7860     1.3270 H          1 MOL       0.000000
     41 H23          2.5700     0.0210    -0.6670 H          1 MOL       0.000000
     42 H24          1.1070    -0.5260    -1.2290 H          1 MOL       0.000000
@<TRIPOS>BOND
     1     1    13 1   
     2     1    14 am  
     3     1    17 2   
     4     2    11 1   
     5     2    16 1   
     6     2    18 1   
     7     3     4 1   
     8     3     5 1   
     9     3    19 1   
    10     3    20 1   
    11     4     6 1   
    12     4    21 1   
    13     4    22 1   
    14     5     7 1   
    15     5    23 1   
    16     5    24 1   
    17     6     8 1   
    18     6    25 1   
    19     6    26 1   
    20     7     8 1   
    21     7    27 1   
    22     7    28 1   
    23     8    12 1   
    24     8    29 1   
    25     9    14 1   
    26     9    30 1   
    27     9    31 1   
    28     9    32 1   
    29    10    14 1   
    30    10    33 1   
    31    10    34 1   
    32    10    35 1   
    33    11    15 1   
    34    11    36 1   
    35    11    37 1   
    36    12    13 1   
    37    12    38 1   
    38    12    39 1   
    39    13    15 1   
    40    13    40 1   
    41    15    41 1   
    42    15    42 1   
@<TRIPOS>SUBSTRUCTURE
     1 MOL         1 TEMP              0 ****  ****    0 ROOT
