@<TRIPOS>MOLECULE
MOL
   24    23     1     0     0
SMALL
No Charge or Current Charge


@<TRIPOS>ATOM
      1 C1          -0.8340     2.3910     0.9400 C.3        1 MOL       0.000000
      2 C2          -2.6530    -1.7580     1.0950 C.3        1 MOL       0.000000
      3 C3           3.4640    -0.0250     0.8920 C.3        1 MOL       0.000000
      4 C4          -0.2190     1.3080     0.0620 C.3        1 MOL       0.000000
      5 N1          -1.3980    -1.1160     0.6700 N.3        1 MOL       0.000000
      6 N2           0.8510     0.6260     0.7680 N.3        1 MOL       0.000000
      7 O1           2.1930     0.4220    -1.4020 O.2        1 MOL       0.000000
      8 O2           1.6540    -1.6960    -0.0660 O.2        1 MOL       0.000000
      9 O3          -1.1340    -0.4080    -1.8260 O.2        1 MOL       0.000000
     10 O4          -2.8730     0.7200    -0.3320 O.2        1 MOL       0.000000
     11 S1           2.0020    -0.2680    -0.1290 S.o2       1 MOL       0.000000
     12 S2          -1.5510     0.1060    -0.5170 S.o2       1 MOL       0.000000
     13 H1          -1.2390     1.9680     1.8650 H          1 MOL       0.000000
     14 H2          -0.0580     3.1180     1.1980 H          1 MOL       0.000000
     15 H3          -1.6460     2.8960     0.4140 H          1 MOL       0.000000
     16 H4          -3.3450    -0.9900     1.4420 H          1 MOL       0.000000
     17 H5          -2.4150    -2.4260     1.9280 H          1 MOL       0.000000
     18 H6          -3.1370    -2.3370     0.2990 H          1 MOL       0.000000
     19 H7           4.2700    -0.5940     0.4230 H          1 MOL       0.000000
     20 H8           3.7020     1.0390     0.9150 H          1 MOL       0.000000
     21 H9           3.2700    -0.4080     1.8960 H          1 MOL       0.000000
     22 H10          0.1790     1.7100    -0.8730 H          1 MOL       0.000000
     23 H11         -0.7050    -1.7870     0.3280 H          1 MOL       0.000000
     24 H12          0.4660     0.0290     1.5040 H          1 MOL       0.000000
@<TRIPOS>BOND
     1     1     4 1   
     2     1    13 1   
     3     1    14 1   
     4     1    15 1   
     5     2     5 1   
     6     2    16 1   
     7     2    17 1   
     8     2    18 1   
     9     3    11 1   
    10     3    19 1   
    11     3    20 1   
    12     3    21 1   
    13     4     6 1   
    14     4    12 1   
    15     4    22 1   
    16     5    12 1   
    17     5    23 1   
    18     6    11 1   
    19     6    24 1   
    20     7    11 2   
    21     8    11 2   
    22     9    12 2   
    23    10    12 2   
@<TRIPOS>SUBSTRUCTURE
     1 MOL         1 TEMP              0 ****  ****    0 ROOT
