@<TRIPOS>MOLECULE
MOL
   21    21     1     0     0
SMALL
No Charge or Current Charge


@<TRIPOS>ATOM
 1  C1  2.160000  1.494000  0.041000  C.ar  1  MOL  -0.311617 
 2  C2  0.949000  0.944000  -0.371000  C.ar  1  MOL  -0.004168 
 3  C3  3.184000  0.634000  0.445000  C.ar  1  MOL  0.232993 
 4  C4  1.896000  -1.210000  0.056000  C.ar  1  MOL  0.249087 
 5  C5  0.802000  -0.449000  -0.366000  C.ar  1  MOL  -0.006198 
 6  C6  -2.476000  0.144000  0.006000  C.2  1  MOL  0.510929 
 7  C7  -3.532000  0.259000  1.095000  C.3  1  MOL  -0.313908 
 8  C8  -0.495000  -1.107000  -0.792000  C.3  1  MOL  -0.184375 
 9  N1  3.067000  -0.699000  0.457000  N.ar  1  MOL  -0.569112 
 10  N2  -1.600000  -0.899000  0.142000  N.am  1  MOL  -0.353167 
 11  O1  -2.426000  0.930000  -0.934000  O.2  1  MOL  -0.514977 
 12  H1  2.314000  2.569000  0.046000  H  1  MOL  0.156165 
 13  H2  0.124000  1.572000  -0.697000  H  1  MOL  0.136581 
 14  H3  4.143000  1.033000  0.773000  H  1  MOL  0.094504 
 15  H4  1.826000  -2.299000  0.068000  H  1  MOL  0.068899 
 16  H5  -3.404000  1.214000  1.613000  H  1  MOL  0.111818 
 17  H6  -4.519000  0.274000  0.623000  H  1  MOL  0.116842 
 18  H7  -3.502000  -0.552000  1.830000  H  1  MOL  0.089295 
 19  H8  -0.829000  -0.702000  -1.751000  H  1  MOL  0.116729 
 20  H9  -0.346000  -2.186000  -0.912000  H  1  MOL  0.116729 
 21  H10  -1.602000  -1.430000  1.001000  H  1  MOL  0.256949 
@<TRIPOS>BOND
     1     1     2 ar  
     2     1     3 ar  
     3     1    12 1   
     4     2     5 ar  
     5     2    13 1   
     6     3     9 ar  
     7     3    14 1   
     8     4     5 ar  
     9     4     9 ar  
    10     4    15 1   
    11     5     8 1   
    12     6     7 1   
    13     6    10 am  
    14     6    11 2   
    15     7    16 1   
    16     7    17 1   
    17     7    18 1   
    18     8    10 1   
    19     8    19 1   
    20     8    20 1   
    21    10    21 1   
@<TRIPOS>SUBSTRUCTURE
     1 MOL         1 TEMP              0 ****  ****    0 ROOT
