@<TRIPOS>MOLECULE
MOL
   21    21     1     0     0
SMALL
No Charge or Current Charge


@<TRIPOS>ATOM
      1 C1           2.8850     0.5830     0.1070 C.ar       1 MOL       0.000000
      2 C2           2.5740     1.9410     0.1600 C.ar       1 MOL       0.000000
      3 C3           0.3400     1.5220    -0.0230 C.ar       1 MOL       0.000000
      4 C4           0.5100     0.1330    -0.0940 C.ar       1 MOL       0.000000
      5 C5           1.8330    -0.3190    -0.0190 C.ar       1 MOL       0.000000
      6 C6          -3.0180    -0.1680     0.1660 C.2        1 MOL       0.000000
      7 C7          -4.2450     0.4910    -0.4440 C.3        1 MOL       0.000000
      8 C8          -0.6640    -0.8210    -0.2230 C.3        1 MOL       0.000000
      9 N1           1.3260     2.4160     0.0990 N.ar       1 MOL       0.000000
     10 N2          -1.9020    -0.1880    -0.6360 N.am       1 MOL       0.000000
     11 O1          -3.0280    -0.6430     1.2940 O.2        1 MOL       0.000000
     12 Cl1          2.1950    -2.0400    -0.0740 Cl         1 MOL       0.000000
     13 H1           3.9110     0.2360     0.1640 H          1 MOL       0.000000
     14 H2           3.3700     2.6770     0.2580 H          1 MOL       0.000000
     15 H3          -0.6690     1.9260    -0.0680 H          1 MOL       0.000000
     16 H4          -5.0660    -0.2320    -0.4520 H          1 MOL       0.000000
     17 H5          -4.5510     1.3240     0.1970 H          1 MOL       0.000000
     18 H6          -4.0900     0.8650    -1.4610 H          1 MOL       0.000000
     19 H7          -0.4050    -1.6250    -0.9230 H          1 MOL       0.000000
     20 H8          -0.8770    -1.2930     0.7420 H          1 MOL       0.000000
     21 H9          -1.9660     0.1790    -1.5740 H          1 MOL       0.000000
@<TRIPOS>BOND
     1     1     2 ar  
     2     1     5 ar  
     3     1    13 1   
     4     2     9 ar  
     5     2    14 1   
     6     3     4 ar  
     7     3     9 ar  
     8     3    15 1   
     9     4     5 ar  
    10     4     8 1   
    11     5    12 1   
    12     6     7 1   
    13     6    10 am  
    14     6    11 2   
    15     7    16 1   
    16     7    17 1   
    17     7    18 1   
    18     8    10 1   
    19     8    19 1   
    20     8    20 1   
    21    10    21 1   
@<TRIPOS>SUBSTRUCTURE
     1 MOL         1 TEMP              0 ****  ****    0 ROOT
