@<TRIPOS>MOLECULE
MOL
   21    21     1     0     0
SMALL
No Charge or Current Charge


@<TRIPOS>ATOM
 1  C1  2.885000  0.583000  0.107000  C.ar  1  MOL  -0.209182 
 2  C2  2.574000  1.941000  0.160000  C.ar  1  MOL  0.225929 
 3  C3  0.340000  1.522000  -0.023000  C.ar  1  MOL  0.224906 
 4  C4  0.510000  0.133000  -0.094000  C.ar  1  MOL  0.078348 
 5  C5  1.833000  -0.319000  -0.019000  C.ar  1  MOL  0.006678 
 6  C6  -3.018000  -0.168000  0.166000  C.2  1  MOL  0.510929 
 7  C7  -4.245000  0.491000  -0.444000  C.3  1  MOL  -0.313908 
 8  C8  -0.664000  -0.821000  -0.223000  C.3  1  MOL  -0.160751 
 9  N1  1.326000  2.416000  0.099000  N.ar  1  MOL  -0.547361 
 10  N2  -1.902000  -0.188000  -0.636000  N.am  1  MOL  -0.353167 
 11  O1  -3.028000  -0.643000  1.294000  O.2  1  MOL  -0.514977 
 12  Cl1  2.195000  -2.040000  -0.074000  Cl  1  MOL  -0.075903 
 13  H1  3.911000  0.236000  0.164000  H  1  MOL  0.142275 
 14  H2  3.370000  2.677000  0.258000  H  1  MOL  0.098650 
 15  H3  -0.669000  1.926000  -0.068000  H  1  MOL  0.080963 
 16  H4  -5.066000  -0.232000  -0.452000  H  1  MOL  0.111818 
 17  H5  -4.551000  1.324000  0.197000  H  1  MOL  0.116842 
 18  H6  -4.090000  0.865000  -1.461000  H  1  MOL  0.089295 
 19  H7  -0.405000  -1.625000  -0.923000  H  1  MOL  0.115834 
 20  H8  -0.877000  -1.293000  0.742000  H  1  MOL  0.115834 
 21  H9  -1.966000  0.179000  -1.574000  H  1  MOL  0.256949 
@<TRIPOS>BOND
     1     1     2 ar  
     2     1     5 ar  
     3     1    13 1   
     4     2     9 ar  
     5     2    14 1   
     6     3     4 ar  
     7     3     9 ar  
     8     3    15 1   
     9     4     5 ar  
    10     4     8 1   
    11     5    12 1   
    12     6     7 1   
    13     6    10 am  
    14     6    11 2   
    15     7    16 1   
    16     7    17 1   
    17     7    18 1   
    18     8    10 1   
    19     8    19 1   
    20     8    20 1   
    21    10    21 1   
@<TRIPOS>SUBSTRUCTURE
     1 MOL         1 TEMP              0 ****  ****    0 ROOT
