@<TRIPOS>MOLECULE
MOL
   21    21     1     0     0
SMALL
No Charge or Current Charge


@<TRIPOS>ATOM
      1 C1           2.5390     0.9350     0.4050 C.ar       1 MOL       0.000000
      2 C2           3.4160    -0.1460     0.4960 C.ar       1 MOL       0.000000
      3 C3           1.8290    -1.6020    -0.2410 C.ar       1 MOL       0.000000
      4 C4           0.8450    -0.6110    -0.3730 C.ar       1 MOL       0.000000
      5 C5           1.2410     0.6900    -0.0340 C.ar       1 MOL       0.000000
      6 C6          -2.7590    -0.3370     0.0460 C.2        1 MOL       0.000000
      7 C7          -3.6560    -0.3350     1.2750 C.3        1 MOL       0.000000
      8 C8          -0.5420    -0.9770    -0.8500 C.3        1 MOL       0.000000
      9 N1           3.0810    -1.4010     0.1800 N.ar       1 MOL       0.000000
     10 N2          -1.5290    -0.9180     0.2190 N.am       1 MOL       0.000000
     11 O1          -3.1120     0.1540    -1.0180 O.2        1 MOL       0.000000
     12 Cl1          0.1230     2.0310    -0.1710 Cl         1 MOL       0.000000
     13 H1           2.8570     1.9390     0.6650 H          1 MOL       0.000000
     14 H2           4.4370     0.0110     0.8380 H          1 MOL       0.000000
     15 H3           1.5730    -2.6290    -0.5010 H          1 MOL       0.000000
     16 H4          -3.2350    -0.8680     2.1330 H          1 MOL       0.000000
     17 H5          -3.8490     0.7030     1.5650 H          1 MOL       0.000000
     18 H6          -4.6170    -0.7850     1.0110 H          1 MOL       0.000000
     19 H7          -0.8990    -0.2920    -1.6230 H          1 MOL       0.000000
     20 H8          -0.5100    -1.9830    -1.2900 H          1 MOL       0.000000
     21 H9          -1.2960    -1.3310     1.1110 H          1 MOL       0.000000
@<TRIPOS>BOND
     1     1     2 ar  
     2     1     5 ar  
     3     1    13 1   
     4     2     9 ar  
     5     2    14 1   
     6     3     4 ar  
     7     3     9 ar  
     8     3    15 1   
     9     4     5 ar  
    10     4     8 1   
    11     5    12 1   
    12     6     7 1   
    13     6    10 am  
    14     6    11 2   
    15     7    16 1   
    16     7    17 1   
    17     7    18 1   
    18     8    10 1   
    19     8    19 1   
    20     8    20 1   
    21    10    21 1   
@<TRIPOS>SUBSTRUCTURE
     1 MOL         1 TEMP              0 ****  ****    0 ROOT
