@<TRIPOS>MOLECULE
MOL
   21    21     1     0     0
SMALL
No Charge or Current Charge


@<TRIPOS>ATOM
 1  C1  2.539000  0.935000  0.405000  C.ar  1  MOL  -0.209182 
 2  C2  3.416000  -0.146000  0.496000  C.ar  1  MOL  0.225929 
 3  C3  1.829000  -1.602000  -0.241000  C.ar  1  MOL  0.224906 
 4  C4  0.845000  -0.611000  -0.373000  C.ar  1  MOL  0.078348 
 5  C5  1.241000  0.690000  -0.034000  C.ar  1  MOL  0.006678 
 6  C6  -2.759000  -0.337000  0.046000  C.2  1  MOL  0.510929 
 7  C7  -3.656000  -0.335000  1.275000  C.3  1  MOL  -0.313908 
 8  C8  -0.542000  -0.977000  -0.850000  C.3  1  MOL  -0.160751 
 9  N1  3.081000  -1.401000  0.180000  N.ar  1  MOL  -0.547361 
 10  N2  -1.529000  -0.918000  0.219000  N.am  1  MOL  -0.353167 
 11  O1  -3.112000  0.154000  -1.018000  O.2  1  MOL  -0.514977 
 12  Cl1  0.123000  2.031000  -0.171000  Cl  1  MOL  -0.075903 
 13  H1  2.857000  1.939000  0.665000  H  1  MOL  0.142275 
 14  H2  4.437000  0.011000  0.838000  H  1  MOL  0.098650 
 15  H3  1.573000  -2.629000  -0.501000  H  1  MOL  0.080963 
 16  H4  -3.235000  -0.868000  2.133000  H  1  MOL  0.111818 
 17  H5  -3.849000  0.703000  1.565000  H  1  MOL  0.116842 
 18  H6  -4.617000  -0.785000  1.011000  H  1  MOL  0.089295 
 19  H7  -0.899000  -0.292000  -1.623000  H  1  MOL  0.115834 
 20  H8  -0.510000  -1.983000  -1.290000  H  1  MOL  0.115834 
 21  H9  -1.296000  -1.331000  1.111000  H  1  MOL  0.256949 
@<TRIPOS>BOND
     1     1     2 ar  
     2     1     5 ar  
     3     1    13 1   
     4     2     9 ar  
     5     2    14 1   
     6     3     4 ar  
     7     3     9 ar  
     8     3    15 1   
     9     4     5 ar  
    10     4     8 1   
    11     5    12 1   
    12     6     7 1   
    13     6    10 am  
    14     6    11 2   
    15     7    16 1   
    16     7    17 1   
    17     7    18 1   
    18     8    10 1   
    19     8    19 1   
    20     8    20 1   
    21    10    21 1   
@<TRIPOS>SUBSTRUCTURE
     1 MOL         1 TEMP              0 ****  ****    0 ROOT
