@<TRIPOS>MOLECULE
MOL
   24    23     1     0     0
SMALL
No Charge or Current Charge


@<TRIPOS>ATOM
      1 C1          0.8060    2.2380   -0.0670 C.3       1 MOL      0.000000
      2 C2          4.0380    0.1270    0.4090 C.3       1 MOL      0.000000
      3 C3         -2.4450   -1.6970   -0.2470 C.3       1 MOL      0.000000
      4 C4          0.2280    0.8520    0.1910 C.3       1 MOL      0.000000
      5 N1          2.6950   -0.2000    0.9140 N.3       1 MOL      0.000000
      6 N2         -0.9600    0.5870   -0.5780 N.3       1 MOL      0.000000
      7 O1         -3.4700    0.7290   -0.6030 O.2       1 MOL      0.000000
      8 O2         -2.2550    0.2010    1.5900 O.2       1 MOL      0.000000
      9 O3          1.9930   -0.2160   -1.5700 O.2       1 MOL      0.000000
     10 O4          0.8430   -1.7630    0.1240 O.2       1 MOL      0.000000
     11 S1         -2.4020    0.0580    0.1390 S.o2      1 MOL      0.000000
     12 S2          1.4650   -0.4750   -0.2240 S.o2      1 MOL      0.000000
     13 H1          1.0430    2.3700   -1.1280 H         1 MOL      0.000000
     14 H2          0.0720    2.9920    0.2340 H         1 MOL      0.000000
     15 H3          1.7180    2.3900    0.5160 H         1 MOL      0.000000
     16 H4          3.9760    0.9950   -0.2470 H         1 MOL      0.000000
     17 H5          4.5090   -0.6930   -0.1450 H         1 MOL      0.000000
     18 H6          4.6580    0.3860    1.2720 H         1 MOL      0.000000
     19 H7         -3.3180   -2.1130    0.2610 H         1 MOL      0.000000
     20 H8         -2.5380   -1.8090   -1.3280 H         1 MOL      0.000000
     21 H9         -1.5180   -2.1500    0.1100 H         1 MOL      0.000000
     22 H10         0.0150    0.6950    1.2510 H         1 MOL      0.000000
     23 H11         2.6890   -0.9860    1.5610 H         1 MOL      0.000000
     24 H12        -1.1330    1.1670   -1.3920 H         1 MOL      0.000000
@<TRIPOS>BOND
     1    1    4 1   
     2    1   13 1   
     3    1   14 1   
     4    1   15 1   
     5    2    5 1   
     6    2   16 1   
     7    2   17 1   
     8    2   18 1   
     9    3   11 1   
    10    3   19 1   
    11    3   20 1   
    12    3   21 1   
    13    4    6 1   
    14    4   12 1   
    15    4   22 1   
    16    5   12 1   
    17    5   23 1   
    18    6   11 1   
    19    6   24 1   
    20    7   11 2   
    21    8   11 2   
    22    9   12 2   
    23   10   12 2   
@<TRIPOS>SUBSTRUCTURE
     1 MOL         1 TEMP              0 ****  ****    0 ROOT
