@<TRIPOS>MOLECULE
MOL
   26    26     1     0     0
SMALL
No Charge or Current Charge


@<TRIPOS>ATOM
      1 C1           2.3310    -1.9620     0.4180 C.ar       1 MOL       0.000000
      2 C2           1.0240    -2.1940    -0.0290 C.ar       1 MOL       0.000000
      3 C3           2.8330    -0.6700     0.4900 C.ar       1 MOL       0.000000
      4 C4           0.7210     0.1900    -0.3420 C.ar       1 MOL       0.000000
      5 C5           0.2180    -1.1200    -0.4080 C.ar       1 MOL       0.000000
      6 C6           2.0250     0.4140     0.1070 C.ar       1 MOL       0.000000
      7 C7          -2.7780     0.3390     0.0380 C.2        1 MOL       0.000000
      8 C8          -3.7480     0.6610     1.1660 C.3        1 MOL       0.000000
      9 C9           1.8420     2.7790    -0.1810 C.3        1 MOL       0.000000
     10 C10         -1.2070    -1.3430    -0.8800 C.3        1 MOL       0.000000
     11 N1          -2.2220    -0.9090     0.0800 N.am       1 MOL       0.000000
     12 O1          -2.5300     1.1500    -0.8490 O.2        1 MOL       0.000000
     13 O2           2.6060     1.6450     0.2050 O.3        1 MOL       0.000000
     14 H1           2.9600    -2.7980     0.7120 H          1 MOL       0.000000
     15 H2           0.6400    -3.2100    -0.0870 H          1 MOL       0.000000
     16 H3           3.8430    -0.4690     0.8320 H          1 MOL       0.000000
     17 H4           0.0770     1.0080    -0.6450 H          1 MOL       0.000000
     18 H5          -3.3390     1.4830     1.7620 H          1 MOL       0.000000
     19 H6          -4.6880     1.0120     0.7290 H          1 MOL       0.000000
     20 H7          -3.9570    -0.1870     1.8260 H          1 MOL       0.000000
     21 H8           2.4900     3.6430    -0.0250 H          1 MOL       0.000000
     22 H9           0.9380     2.8850     0.4330 H          1 MOL       0.000000
     23 H10          1.5510     2.7280    -1.2380 H          1 MOL       0.000000
     24 H11         -1.4010    -0.7790    -1.7960 H          1 MOL       0.000000
     25 H12         -1.3710    -2.4050    -1.0940 H          1 MOL       0.000000
     26 H13         -2.3480    -1.4660     0.9130 H          1 MOL       0.000000
@<TRIPOS>BOND
     1     1     2 ar  
     2     1     3 ar  
     3     1    14 1   
     4     2     5 ar  
     5     2    15 1   
     6     3     6 ar  
     7     3    16 1   
     8     4     5 ar  
     9     4     6 ar  
    10     4    17 1   
    11     5    10 1   
    12     6    13 1   
    13     7     8 1   
    14     7    11 am  
    15     7    12 2   
    16     8    18 1   
    17     8    19 1   
    18     8    20 1   
    19     9    13 1   
    20     9    21 1   
    21     9    22 1   
    22     9    23 1   
    23    10    11 1   
    24    10    24 1   
    25    10    25 1   
    26    11    26 1   
@<TRIPOS>SUBSTRUCTURE
     1 MOL         1 TEMP              0 ****  ****    0 ROOT
