@<TRIPOS>MOLECULE
MOL
   32    31     1     0     0
SMALL
No Charge or Current Charge


@<TRIPOS>ATOM
 1  C1  1.326000  -0.385000  -0.588000  C.2  1  MOL  0.636107 
 2  C2  2.212000  2.322000  0.292000  C.3  1  MOL  -0.146530 
 3  C3  -0.182000  3.124000  0.198000  C.3  1  MOL  -0.146530 
 4  C4  3.061000  -2.061000  -0.309000  C.3  1  MOL  -0.071473 
 5  C5  1.883000  -1.206000  1.710000  C.3  1  MOL  -0.089282 
 6  C6  -3.498000  0.414000  0.327000  C.3  1  MOL  -0.412669 
 7  C7  0.324000  0.639000  -0.017000  C.3  1  MOL  -0.266507 
 8  C8  0.819000  2.080000  -0.310000  C.3  1  MOL  0.215584 
 9  N1  -0.974000  0.412000  -0.690000  N.3  1  MOL  -0.497998 
 10  N2  2.053000  -1.168000  0.257000  N.am  1  MOL  -0.344286 
 11  O1  1.433000  -0.439000  -1.817000  O.2  1  MOL  -0.560519 
 12  O2  -1.562000  -1.066000  1.342000  O.2  1  MOL  -0.518639 
 13  O3  -2.470000  -1.646000  -0.979000  O.2  1  MOL  -0.504040 
 14  S1  -2.079000  -0.655000  0.028000  S.o2  1  MOL  0.947437 
 15  H1  2.199000  2.207000  1.384000  H  1  MOL  0.038866 
 16  H2  2.962000  1.635000  -0.115000  H  1  MOL  0.038866 
 17  H3  2.547000  3.342000  0.074000  H  1  MOL  0.038866 
 18  H4  -0.276000  3.082000  1.292000  H  1  MOL  0.038866 
 19  H5  -1.173000  2.970000  -0.237000  H  1  MOL  0.038866 
 20  H6  0.152000  4.134000  -0.065000  H  1  MOL  0.038866 
 21  H7  4.046000  -1.846000  0.124000  H  1  MOL  0.087465 
 22  H8  3.092000  -1.907000  -1.387000  H  1  MOL  0.084069 
 23  H9  2.807000  -3.107000  -0.099000  H  1  MOL  0.088028 
 24  H10  0.826000  -1.192000  1.983000  H  1  MOL  0.094118 
 25  H11  2.409000  -0.383000  2.210000  H  1  MOL  0.067267 
 26  H12  2.305000  -2.146000  2.075000  H  1  MOL  0.084095 
 27  H13  -4.269000  -0.200000  0.798000  H  1  MOL  0.187843 
 28  H14  -3.195000  1.225000  0.992000  H  1  MOL  0.155917 
 29  H15  -3.850000  0.805000  -0.629000  H  1  MOL  0.144151 
 30  H16  0.162000  0.530000  1.055000  H  1  MOL  0.182442 
 31  H17  0.900000  2.165000  -1.401000  H  1  MOL  0.004301 
 32  H18  -0.811000  0.107000  -1.653000  H  1  MOL  0.346457 
@<TRIPOS>BOND
     1     1     7 1   
     2     1    10 am  
     3     1    11 2   
     4     2     8 1   
     5     2    15 1   
     6     2    16 1   
     7     2    17 1   
     8     3     8 1   
     9     3    18 1   
    10     3    19 1   
    11     3    20 1   
    12     4    10 1   
    13     4    21 1   
    14     4    22 1   
    15     4    23 1   
    16     5    10 1   
    17     5    24 1   
    18     5    25 1   
    19     5    26 1   
    20     6    14 1   
    21     6    27 1   
    22     6    28 1   
    23     6    29 1   
    24     7     8 1   
    25     7     9 1   
    26     7    30 1   
    27     8    31 1   
    28     9    14 1   
    29     9    32 1   
    30    12    14 2   
    31    13    14 2   
@<TRIPOS>SUBSTRUCTURE
     1 MOL         1 TEMP              0 ****  ****    0 ROOT
