@<TRIPOS>MOLECULE
MOL
   32    31     1     0     0
SMALL
No Charge or Current Charge


@<TRIPOS>ATOM
      1 C1           1.3260    -0.3850    -0.5880 C.2        1 MOL       0.000000
      2 C2           2.2120     2.3220     0.2920 C.3        1 MOL       0.000000
      3 C3          -0.1820     3.1240     0.1980 C.3        1 MOL       0.000000
      4 C4           3.0610    -2.0610    -0.3090 C.3        1 MOL       0.000000
      5 C5           1.8830    -1.2060     1.7100 C.3        1 MOL       0.000000
      6 C6          -3.4980     0.4140     0.3270 C.3        1 MOL       0.000000
      7 C7           0.3240     0.6390    -0.0170 C.3        1 MOL       0.000000
      8 C8           0.8190     2.0800    -0.3100 C.3        1 MOL       0.000000
      9 N1          -0.9740     0.4120    -0.6900 N.3        1 MOL       0.000000
     10 N2           2.0530    -1.1680     0.2570 N.am       1 MOL       0.000000
     11 O1           1.4330    -0.4390    -1.8170 O.2        1 MOL       0.000000
     12 O2          -1.5620    -1.0660     1.3420 O.2        1 MOL       0.000000
     13 O3          -2.4700    -1.6460    -0.9790 O.2        1 MOL       0.000000
     14 S1          -2.0790    -0.6550     0.0280 S.o2       1 MOL       0.000000
     15 H1           2.1990     2.2070     1.3840 H          1 MOL       0.000000
     16 H2           2.9620     1.6350    -0.1150 H          1 MOL       0.000000
     17 H3           2.5470     3.3420     0.0740 H          1 MOL       0.000000
     18 H4          -0.2760     3.0820     1.2920 H          1 MOL       0.000000
     19 H5          -1.1730     2.9700    -0.2370 H          1 MOL       0.000000
     20 H6           0.1520     4.1340    -0.0650 H          1 MOL       0.000000
     21 H7           4.0460    -1.8460     0.1240 H          1 MOL       0.000000
     22 H8           3.0920    -1.9070    -1.3870 H          1 MOL       0.000000
     23 H9           2.8070    -3.1070    -0.0990 H          1 MOL       0.000000
     24 H10          0.8260    -1.1920     1.9830 H          1 MOL       0.000000
     25 H11          2.4090    -0.3830     2.2100 H          1 MOL       0.000000
     26 H12          2.3050    -2.1460     2.0750 H          1 MOL       0.000000
     27 H13         -4.2690    -0.2000     0.7980 H          1 MOL       0.000000
     28 H14         -3.1950     1.2250     0.9920 H          1 MOL       0.000000
     29 H15         -3.8500     0.8050    -0.6290 H          1 MOL       0.000000
     30 H16          0.1620     0.5300     1.0550 H          1 MOL       0.000000
     31 H17          0.9000     2.1650    -1.4010 H          1 MOL       0.000000
     32 H18         -0.8110     0.1070    -1.6530 H          1 MOL       0.000000
@<TRIPOS>BOND
     1     1     7 1   
     2     1    10 am  
     3     1    11 2   
     4     2     8 1   
     5     2    15 1   
     6     2    16 1   
     7     2    17 1   
     8     3     8 1   
     9     3    18 1   
    10     3    19 1   
    11     3    20 1   
    12     4    10 1   
    13     4    21 1   
    14     4    22 1   
    15     4    23 1   
    16     5    10 1   
    17     5    24 1   
    18     5    25 1   
    19     5    26 1   
    20     6    14 1   
    21     6    27 1   
    22     6    28 1   
    23     6    29 1   
    24     7     8 1   
    25     7     9 1   
    26     7    30 1   
    27     8    31 1   
    28     9    14 1   
    29     9    32 1   
    30    12    14 2   
    31    13    14 2   
@<TRIPOS>SUBSTRUCTURE
     1 MOL         1 TEMP              0 ****  ****    0 ROOT
