@<TRIPOS>MOLECULE
MOL
   25    25     1     0     0
SMALL
No Charge or Current Charge


@<TRIPOS>ATOM
      1 C1           2.2640     0.8380     0.6500 C.ar       1 MOL       0.000000
      2 C2           2.6710    -0.4770     0.6080 C.ar       1 MOL       0.000000
      3 C3           0.7550    -1.0700    -0.6220 C.ar       1 MOL       0.000000
      4 C4           0.2780     0.2360    -0.6210 C.ar       1 MOL       0.000000
      5 C5           1.0540     1.2000     0.0400 C.ar       1 MOL       0.000000
      6 C6          -2.5730    -0.7110     0.1830 C.2        1 MOL       0.000000
      7 C7          -3.8100    -0.6860     1.0520 C.3        1 MOL       0.000000
      8 C8           2.3320    -2.8370    -0.0060 C.3        1 MOL       0.000000
      9 C9          -1.0620     0.5270    -1.2840 C.3        1 MOL       0.000000
     10 N1           1.9170    -1.4130    -0.0230 N.pl3      1 MOL       0.000000
     11 N2          -2.1570     0.4920    -0.3300 N.am       1 MOL       0.000000
     12 O1          -1.9550    -1.7420    -0.0770 O.2        1 MOL       0.000000
     13 Cl1          0.5440     2.8470     0.1250 Cl         1 MOL       0.000000
     14 H1           2.8780     1.5760     1.1530 H          1 MOL       0.000000
     15 H2           3.5890    -0.8200     1.0690 H          1 MOL       0.000000
     16 H3           0.1820    -1.8680    -1.0740 H          1 MOL       0.000000
     17 H4          -4.6290    -1.1750     0.5130 H          1 MOL       0.000000
     18 H5          -3.6210    -1.2710     1.9560 H          1 MOL       0.000000
     19 H6          -4.1270     0.3220     1.3320 H          1 MOL       0.000000
     20 H7           1.8470    -3.3430     0.8320 H          1 MOL       0.000000
     21 H8           2.0350    -3.3050    -0.9440 H          1 MOL       0.000000
     22 H9           3.4160    -2.8910     0.1000 H          1 MOL       0.000000
     23 H10         -1.0400     1.5130    -1.7520 H          1 MOL       0.000000
     24 H11         -1.2330    -0.2180    -2.0680 H          1 MOL       0.000000
     25 H12         -2.6860     1.3350    -0.1570 H          1 MOL       0.000000
@<TRIPOS>BOND
     1     1     2 ar  
     2     1     5 ar  
     3     1    14 1   
     4     2    10 2   
     5     2    15 1   
     6     3     4 ar  
     7     3    10 1   
     8     3    16 1   
     9     4     5 ar  
    10     4     9 1   
    11     5    13 1   
    12     6     7 1   
    13     6    11 am  
    14     6    12 2   
    15     7    17 1   
    16     7    18 1   
    17     7    19 1   
    18     8    10 1   
    19     8    20 1   
    20     8    21 1   
    21     8    22 1   
    22     9    11 1   
    23     9    23 1   
    24     9    24 1   
    25    11    25 1   
@<TRIPOS>SUBSTRUCTURE
     1 MOL         1 TEMP              0 ****  ****    0 ROOT
