@<TRIPOS>MOLECULE
MOL
   25    25     1     0     0
SMALL
No Charge or Current Charge


@<TRIPOS>ATOM
 1  C1  2.264000  0.838000  0.650000  C.ar  1  MOL  -0.081227 
 2  C2  2.671000  -0.477000  0.608000  C.ar  1  MOL  -0.033832 
 3  C3  0.755000  -1.070000  -0.622000  C.ar  1  MOL  0.057945 
 4  C4  0.278000  0.236000  -0.621000  C.ar  1  MOL  0.125234 
 5  C5  1.054000  1.200000  0.040000  C.ar  1  MOL  -0.051975 
 6  C6  -2.573000  -0.711000  0.183000  C.2  1  MOL  0.419930 
 7  C7  -3.810000  -0.686000  1.052000  C.3  1  MOL  -0.016420 
 8  C8  2.332000  -2.837000  -0.006000  C.3  1  MOL  -0.202701 
 9  C9  -1.062000  0.527000  -1.284000  C.3  1  MOL  -0.284149 
 10  N1  1.917000  -1.413000  -0.023000  N.pl3  1  MOL  0.061195 
 11  N2  -2.157000  0.492000  -0.330000  N.am  1  MOL  -0.189472 
 12  O1  -1.955000  -1.742000  -0.077000  O.2  1  MOL  -0.497640 
 13  Cl1  0.544000  2.847000  0.125000  Cl  1  MOL  0.057059 
 14  H1  2.878000  1.576000  1.153000  H  1  MOL  0.177579 
 15  H2  3.589000  -0.820000  1.069000  H  1  MOL  0.206182 
 16  H3  0.182000  -1.868000  -1.074000  H  1  MOL  0.163902 
 17  H4  -4.629000  -1.175000  0.513000  H  1  MOL  0.031380 
 18  H5  -3.621000  -1.271000  1.956000  H  1  MOL  0.031380 
 19  H6  -4.127000  0.322000  1.332000  H  1  MOL  0.031380 
 20  H7  1.847000  -3.343000  0.832000  H  1  MOL  0.144613 
 21  H8  2.035000  -3.305000  -0.944000  H  1  MOL  0.144613 
 22  H9  3.416000  -2.891000  0.100000  H  1  MOL  0.144613 
 23  H10  -1.040000  1.513000  -1.752000  H  1  MOL  0.168793 
 24  H11  -1.233000  -0.218000  -2.068000  H  1  MOL  0.168793 
 25  H12  -2.686000  1.335000  -0.157000  H  1  MOL  0.222824 
@<TRIPOS>BOND
     1     1     2 ar  
     2     1     5 ar  
     3     1    14 1   
     4     2    10 2   
     5     2    15 1   
     6     3     4 ar  
     7     3    10 1   
     8     3    16 1   
     9     4     5 ar  
    10     4     9 1   
    11     5    13 1   
    12     6     7 1   
    13     6    11 am  
    14     6    12 2   
    15     7    17 1   
    16     7    18 1   
    17     7    19 1   
    18     8    10 1   
    19     8    20 1   
    20     8    21 1   
    21     8    22 1   
    22     9    11 1   
    23     9    23 1   
    24     9    24 1   
    25    11    25 1   
@<TRIPOS>SUBSTRUCTURE
     1 MOL         1 TEMP              0 ****  ****    0 ROOT
