@<TRIPOS>MOLECULE
*****
 13 13 0 0 0
SMALL
GASTEIGER

@<TRIPOS>ATOM
      1 N           1.8150   -0.1340    1.0761 N.am    1  UNL1        0.3249
      2 C           2.5197    0.0448   -0.0820 C.2     1  UNL1        0.2482
      3 O           2.6290    1.1716   -0.5555 O.2     1  UNL1        0.2698
      4 C           3.1382   -1.1400   -0.6469 C.ar    1  UNL1        0.0750
      5 C           4.2122   -1.1868   -1.5205 C.ar    1  UNL1        0.0411
      6 C           4.5658   -2.5222   -1.8803 C.ar    1  UNL1        0.0355
      7 C           3.7261   -3.4281   -1.2879 C.ar    1  UNL1        0.0787
      8 CL          3.7709   -5.1356   -1.4590 Cl      1  UNL1        0.0758
      9 S           2.5556   -2.7178   -0.2974 S.2     1  UNL1        0.0722
     10 H           1.4271    0.6818    1.5275 H       1  UNL1        0.1453
     11 H           1.7911   -1.0263    1.5489 H       1  UNL1        0.1453
     12 H           4.7271   -0.2978   -1.8692 H       1  UNL1        0.0631
     13 H           5.3823   -2.7916   -2.5383 H       1  UNL1        0.0638
@<TRIPOS>BOND
     1     1     2   am
     2     2     3    2
     3     2     4    1
     4     4     5   ar
     5     5     6   ar
     6     6     7   ar
     7     7     8    1
     8     7     9   ar
     9     4     9   ar
    10     1    10    1
    11     1    11    1
    12     5    12    1
    13     6    13    1
