@<TRIPOS>MOLECULE
*****
 22 22 0 0 0
SMALL
GASTEIGER

@<TRIPOS>ATOM
      1 C           1.0338   -0.7581   -0.3534 C.3     1  UNL1        0.0122
      2 C           2.5245   -0.8726   -0.5156 C.2     1  UNL1        0.2102
      3 O           3.0578   -0.9897   -1.6133 O.2     1  UNL1        0.2761
      4 N           3.2114   -0.8405    0.6734 N.am    1  UNL1        0.3114
      5 C           4.6525   -0.9469    0.7307 C.3     1  UNL1        0.0369
      6 C           5.0759   -2.1178    1.5801 C.ar    1  UNL1        0.0289
      7 C           4.7536   -3.4292    1.1951 C.ar    1  UNL1        0.0570
      8 C           5.1455   -4.5181    1.9769 C.ar    1  UNL1        0.0601
      9 C           5.8573   -4.3083    3.1573 C.ar    1  UNL1        0.0434
     10 C           6.1842   -3.0106    3.5440 C.ar    1  UNL1        0.0413
     11 CL          7.0518   -2.7481    5.0071 Cl      1  UNL1        0.0835
     12 C           5.8073   -1.9194    2.7599 C.ar    1  UNL1        0.0387
     13 H           0.5586   -0.7690   -1.3387 H       1  UNL1        0.0322
     14 H           0.7824    0.1809    0.1469 H       1  UNL1        0.0322
     15 H           0.6570   -1.6037    0.2284 H       1  UNL1        0.0322
     16 H           2.7050   -0.7500    1.5440 H       1  UNL1        0.1490
     17 H           5.0163   -0.0070    1.1605 H       1  UNL1        0.0512
     18 H           5.0880   -1.0401   -0.2697 H       1  UNL1        0.0512
     19 H           4.1939   -3.6049    0.2769 H       1  UNL1        0.0621
     20 H           4.8948   -5.5291    1.6649 H       1  UNL1        0.0618
     21 H           6.1538   -5.1570    3.7677 H       1  UNL1        0.0632
     22 H           6.0857   -0.9150    3.0700 H       1  UNL1        0.0635
@<TRIPOS>BOND
     1     1     2    1
     2     2     3    2
     3     2     4   am
     4     4     5    1
     5     5     6    1
     6     6     7   ar
     7     7     8   ar
     8     8     9   ar
     9     9    10   ar
    10    10    11    1
    11    10    12   ar
    12     6    12   ar
    13     1    13    1
    14     1    14    1
    15     1    15    1
    16     4    16    1
    17     5    17    1
    18     5    18    1
    19     7    19    1
    20     8    20    1
    21     9    21    1
    22    12    22    1
