@<TRIPOS>MOLECULE
MOL
   42    42     1     0     0
SMALL
No Charge or Current Charge


@<TRIPOS>ATOM
 1  C1  -2.383000  -0.789000  -0.475000  C.2  1  MOL  0.636107 
 2  C2  4.331000  -1.418000  0.391000  C.3  1  MOL  -0.006084 
 3  C3  3.392000  -0.661000  1.341000  C.3  1  MOL  0.043686 
 4  C4  3.976000  -1.140000  -1.077000  C.3  1  MOL  0.043686 
 5  C5  1.915000  -0.966000  1.046000  C.3  1  MOL  0.008043 
 6  C6  2.499000  -1.448000  -1.367000  C.3  1  MOL  0.008043 
 7  C7  1.548000  -0.681000  -0.424000  C.3  1  MOL  0.195024 
 8  C8  -4.217000  -2.332000  -0.063000  C.3  1  MOL  -0.071473 
 9  C9  -2.403000  -2.231000  1.591000  C.3  1  MOL  -0.089282 
 10  C10  -1.385000  3.745000  0.317000  C.3  1  MOL  -0.412669 
 11  C11  0.087000  -1.035000  -0.752000  C.3  1  MOL  -0.096932 
 12  C12  -1.020000  -0.180000  -0.083000  C.3  1  MOL  -0.215488 
 13  N1  -1.078000  1.212000  -0.545000  N.3  1  MOL  -0.497998 
 14  N2  -2.941000  -1.746000  0.330000  N.am  1  MOL  -0.344286 
 15  O1  -2.900000  -0.432000  -1.533000  O.2  1  MOL  -0.560519 
 16  O2  0.838000  2.922000  -0.827000  O.2  1  MOL  -0.518639 
 17  O3  0.233000  1.978000  1.467000  O.2  1  MOL  -0.504040 
 18  S1  -0.163000  2.433000  0.128000  S.o2  1  MOL  0.947437 
 19  H1  5.375000  -1.143000  0.588000  H  1  MOL  -0.010166 
 20  H2  4.250000  -2.498000  0.585000  H  1  MOL  -0.010166 
 21  H3  3.623000  -0.909000  2.385000  H  1  MOL  -0.013139 
 22  H4  3.558000  0.421000  1.234000  H  1  MOL  -0.013139 
 23  H5  4.173000  -0.082000  -1.303000  H  1  MOL  -0.013139 
 24  H6  4.619000  -1.728000  -1.744000  H  1  MOL  -0.013139 
 25  H7  1.715000  -2.029000  1.260000  H  1  MOL  -0.022718 
 26  H8  1.284000  -0.373000  1.717000  H  1  MOL  -0.022718 
 27  H9  2.262000  -1.205000  -2.411000  H  1  MOL  -0.022718 
 28  H10  2.324000  -2.530000  -1.251000  H  1  MOL  -0.022718 
 29  H11  1.701000  0.391000  -0.614000  H  1  MOL  -0.025112 
 30  H12  -4.117000  -3.418000  -0.185000  H  1  MOL  0.087465 
 31  H13  -4.528000  -1.885000  -1.005000  H  1  MOL  0.084069 
 32  H14  -4.977000  -2.139000  0.706000  H  1  MOL  0.088028 
 33  H15  -3.027000  -1.908000  2.436000  H  1  MOL  0.094118 
 34  H16  -1.385000  -1.885000  1.760000  H  1  MOL  0.067267 
 35  H17  -2.386000  -3.329000  1.585000  H  1  MOL  0.084095 
 36  H18  -0.865000  4.611000  0.735000  H  1  MOL  0.187843 
 37  H19  -1.796000  3.993000  -0.664000  H  1  MOL  0.155917 
 38  H20  -2.170000  3.401000  0.991000  H  1  MOL  0.144151 
 39  H21  -0.075000  -0.972000  -1.837000  H  1  MOL  0.049342 
 40  H22  -0.089000  -2.088000  -0.485000  H  1  MOL  0.049342 
 41  H23  -0.878000  -0.131000  0.996000  H  1  MOL  0.186162 
 42  H24  -1.253000  1.312000  -1.541000  H  1  MOL  0.346457 
@<TRIPOS>BOND
     1     1    12 1   
     2     1    14 am  
     3     1    15 2   
     4     2     3 1   
     5     2     4 1   
     6     2    19 1   
     7     2    20 1   
     8     3     5 1   
     9     3    21 1   
    10     3    22 1   
    11     4     6 1   
    12     4    23 1   
    13     4    24 1   
    14     5     7 1   
    15     5    25 1   
    16     5    26 1   
    17     6     7 1   
    18     6    27 1   
    19     6    28 1   
    20     7    11 1   
    21     7    29 1   
    22     8    14 1   
    23     8    30 1   
    24     8    31 1   
    25     8    32 1   
    26     9    14 1   
    27     9    33 1   
    28     9    34 1   
    29     9    35 1   
    30    10    18 1   
    31    10    36 1   
    32    10    37 1   
    33    10    38 1   
    34    11    12 1   
    35    11    39 1   
    36    11    40 1   
    37    12    13 1   
    38    12    41 1   
    39    13    18 1   
    40    13    42 1   
    41    16    18 2   
    42    17    18 2   
@<TRIPOS>SUBSTRUCTURE
     1 MOL         1 TEMP              0 ****  ****    0 ROOT
