@<TRIPOS>MOLECULE
MOL
   42    42     1     0     0
SMALL
No Charge or Current Charge


@<TRIPOS>ATOM
      1 C1          -2.3830    -0.7890    -0.4750 C.2        1 MOL       0.000000
      2 C2           4.3310    -1.4180     0.3910 C.3        1 MOL       0.000000
      3 C3           3.3920    -0.6610     1.3410 C.3        1 MOL       0.000000
      4 C4           3.9760    -1.1400    -1.0770 C.3        1 MOL       0.000000
      5 C5           1.9150    -0.9660     1.0460 C.3        1 MOL       0.000000
      6 C6           2.4990    -1.4480    -1.3670 C.3        1 MOL       0.000000
      7 C7           1.5480    -0.6810    -0.4240 C.3        1 MOL       0.000000
      8 C8          -4.2170    -2.3320    -0.0630 C.3        1 MOL       0.000000
      9 C9          -2.4030    -2.2310     1.5910 C.3        1 MOL       0.000000
     10 C10         -1.3850     3.7450     0.3170 C.3        1 MOL       0.000000
     11 C11          0.0870    -1.0350    -0.7520 C.3        1 MOL       0.000000
     12 C12         -1.0200    -0.1800    -0.0830 C.3        1 MOL       0.000000
     13 N1          -1.0780     1.2120    -0.5450 N.3        1 MOL       0.000000
     14 N2          -2.9410    -1.7460     0.3300 N.am       1 MOL       0.000000
     15 O1          -2.9000    -0.4320    -1.5330 O.2        1 MOL       0.000000
     16 O2           0.8380     2.9220    -0.8270 O.2        1 MOL       0.000000
     17 O3           0.2330     1.9780     1.4670 O.2        1 MOL       0.000000
     18 S1          -0.1630     2.4330     0.1280 S.o2       1 MOL       0.000000
     19 H1           5.3750    -1.1430     0.5880 H          1 MOL       0.000000
     20 H2           4.2500    -2.4980     0.5850 H          1 MOL       0.000000
     21 H3           3.6230    -0.9090     2.3850 H          1 MOL       0.000000
     22 H4           3.5580     0.4210     1.2340 H          1 MOL       0.000000
     23 H5           4.1730    -0.0820    -1.3030 H          1 MOL       0.000000
     24 H6           4.6190    -1.7280    -1.7440 H          1 MOL       0.000000
     25 H7           1.7150    -2.0290     1.2600 H          1 MOL       0.000000
     26 H8           1.2840    -0.3730     1.7170 H          1 MOL       0.000000
     27 H9           2.2620    -1.2050    -2.4110 H          1 MOL       0.000000
     28 H10          2.3240    -2.5300    -1.2510 H          1 MOL       0.000000
     29 H11          1.7010     0.3910    -0.6140 H          1 MOL       0.000000
     30 H12         -4.1170    -3.4180    -0.1850 H          1 MOL       0.000000
     31 H13         -4.5280    -1.8850    -1.0050 H          1 MOL       0.000000
     32 H14         -4.9770    -2.1390     0.7060 H          1 MOL       0.000000
     33 H15         -3.0270    -1.9080     2.4360 H          1 MOL       0.000000
     34 H16         -1.3850    -1.8850     1.7600 H          1 MOL       0.000000
     35 H17         -2.3860    -3.3290     1.5850 H          1 MOL       0.000000
     36 H18         -0.8650     4.6110     0.7350 H          1 MOL       0.000000
     37 H19         -1.7960     3.9930    -0.6640 H          1 MOL       0.000000
     38 H20         -2.1700     3.4010     0.9910 H          1 MOL       0.000000
     39 H21         -0.0750    -0.9720    -1.8370 H          1 MOL       0.000000
     40 H22         -0.0890    -2.0880    -0.4850 H          1 MOL       0.000000
     41 H23         -0.8780    -0.1310     0.9960 H          1 MOL       0.000000
     42 H24         -1.2530     1.3120    -1.5410 H          1 MOL       0.000000
@<TRIPOS>BOND
     1     1    12 1   
     2     1    14 am  
     3     1    15 2   
     4     2     3 1   
     5     2     4 1   
     6     2    19 1   
     7     2    20 1   
     8     3     5 1   
     9     3    21 1   
    10     3    22 1   
    11     4     6 1   
    12     4    23 1   
    13     4    24 1   
    14     5     7 1   
    15     5    25 1   
    16     5    26 1   
    17     6     7 1   
    18     6    27 1   
    19     6    28 1   
    20     7    11 1   
    21     7    29 1   
    22     8    14 1   
    23     8    30 1   
    24     8    31 1   
    25     8    32 1   
    26     9    14 1   
    27     9    33 1   
    28     9    34 1   
    29     9    35 1   
    30    10    18 1   
    31    10    36 1   
    32    10    37 1   
    33    10    38 1   
    34    11    12 1   
    35    11    39 1   
    36    11    40 1   
    37    12    13 1   
    38    12    41 1   
    39    13    18 1   
    40    13    42 1   
    41    16    18 2   
    42    17    18 2   
@<TRIPOS>SUBSTRUCTURE
     1 MOL         1 TEMP              0 ****  ****    0 ROOT
