@<TRIPOS>MOLECULE
MOL
   12    11     1     0     0
SMALL
No Charge or Current Charge


@<TRIPOS>ATOM
      1 C1          -0.4830     0.1680    -0.0000 C.2        1 MOL       0.000000
      2 C2          -1.8170    -0.5670     0.0000 C.3        1 MOL       0.000000
      3 C3           1.9750    -0.1030     0.0000 C.3        1 MOL       0.000000
      4 N1           0.6250    -0.6350    -0.0000 N.am       1 MOL       0.000000
      5 O1          -0.4220     1.3910    -0.0000 O.2        1 MOL       0.000000
      6 H1          -2.3880    -0.2590     0.8820 H          1 MOL       0.000000
      7 H2          -2.3880    -0.2580    -0.8810 H          1 MOL       0.000000
      8 H3          -1.7260    -1.6580    -0.0000 H          1 MOL       0.000000
      9 H4           1.8920     0.9840    -0.0010 H          1 MOL       0.000000
     10 H5           2.5300    -0.4220    -0.8910 H          1 MOL       0.000000
     11 H6           2.5290    -0.4200     0.8920 H          1 MOL       0.000000
     12 H7           0.4990    -1.6360     0.0000 H          1 MOL       0.000000
@<TRIPOS>BOND
     1     1     2 1   
     2     1     4 am  
     3     1     5 2   
     4     2     6 1   
     5     2     7 1   
     6     2     8 1   
     7     3     4 1   
     8     3     9 1   
     9     3    10 1   
    10     3    11 1   
    11     4    12 1   
@<TRIPOS>SUBSTRUCTURE
     1 MOL         1 TEMP              0 ****  ****    0 ROOT
