@<TRIPOS>MOLECULE
MOL
   12    11     1     0     0
SMALL
No Charge or Current Charge


@<TRIPOS>ATOM
 1  C1  -0.483000  0.168000  -0.000000  C.2  1  MOL  0.596329 
 2  C2  -1.817000  -0.567000  0.000000  C.3  1  MOL  -0.611619 
 3  C3  1.975000  -0.103000  0.000000  C.3  1  MOL  -0.006198 
 4  N1  0.625000  -0.635000  -0.000000  N.am  1  MOL  -0.470020 
 5  O1  -0.422000  1.391000  -0.000000  O.2  1  MOL  -0.524049 
 6  H1  -2.388000  -0.259000  0.882000  H  1  MOL  0.179780 
 7  H2  -2.388000  -0.258000  -0.881000  H  1  MOL  0.179780 
 8  H3  -1.726000  -1.658000  -0.000000  H  1  MOL  0.179780 
 9  H4  1.892000  0.984000  -0.001000  H  1  MOL  0.068972 
 10  H5  2.530000  -0.422000  -0.891000  H  1  MOL  0.058547 
 11  H6  2.529000  -0.420000  0.892000  H  1  MOL  0.062004 
 12  H7  0.499000  -1.636000  0.000000  H  1  MOL  0.286695 
@<TRIPOS>BOND
     1     1     2 1   
     2     1     4 am  
     3     1     5 2   
     4     2     6 1   
     5     2     7 1   
     6     2     8 1   
     7     3     4 1   
     8     3     9 1   
     9     3    10 1   
    10     3    11 1   
    11     4    12 1   
@<TRIPOS>SUBSTRUCTURE
     1 MOL         1 TEMP              0 ****  ****    0 ROOT
