@<TRIPOS>MOLECULE
*****
 15 14 0 0 0
SMALL
GASTEIGER

@<TRIPOS>ATOM
      1 C           1.0261   -0.0835   -0.0254 C.3     1  UNL1        0.0495
      2 C           2.5411   -0.1006    0.0134 C.3     1  UNL1        0.0087
      3 N           3.1238    0.4322   -1.1996 N.am    1  UNL1        0.3158
      4 C           4.4493    0.5602   -1.4911 C.2     1  UNL1        0.2099
      5 C           5.4723    0.1157   -0.4789 C.3     1  UNL1        0.0121
      6 O           4.7871    1.0361   -2.5746 O.2     1  UNL1        0.2761
      7 H           0.6191   -0.4920    0.9047 H       1  UNL1        0.0245
      8 H           0.6477   -0.6838   -0.8592 H       1  UNL1        0.0245
      9 H           0.6477    0.9366   -0.1475 H       1  UNL1        0.0245
     10 H           2.9026   -1.1262    0.1414 H       1  UNL1        0.0459
     11 H           2.9026    0.4991    0.8552 H       1  UNL1        0.0459
     12 H           2.5155    0.7584   -1.9424 H       1  UNL1        0.1487
     13 H           5.0339   -0.2857    0.4350 H       1  UNL1        0.0322
     14 H           6.0953    0.9726   -0.2082 H       1  UNL1        0.0322
     15 H           6.0953   -0.6635   -0.9268 H       1  UNL1        0.0322
@<TRIPOS>BOND
     1     1     2    1
     2     2     3    1
     3     3     4   am
     4     4     5    1
     5     4     6    2
     6     1     7    1
     7     1     8    1
     8     1     9    1
     9     2    10    1
    10     2    11    1
    11     3    12    1
    12     5    13    1
    13     5    14    1
    14     5    15    1
