@<TRIPOS>MOLECULE
MOL
   26    26     1     0     0
SMALL
No Charge or Current Charge


@<TRIPOS>ATOM
      1 C1          -1.4100     1.7270     0.7270 C.ar       1 MOL       0.000000
      2 C2          -2.6300     1.0500     0.6830 C.ar       1 MOL       0.000000
      3 C3          -1.5250    -0.7510    -0.4930 C.ar       1 MOL       0.000000
      4 C4          -0.2360     1.1930     0.1860 C.ar       1 MOL       0.000000
      5 C5          -0.3030    -0.0740    -0.4340 C.ar       1 MOL       0.000000
      6 C6          -2.6740    -0.1940     0.0650 C.ar       1 MOL       0.000000
      7 C7           3.0980    -0.8710     0.1550 C.2        1 MOL       0.000000
      8 C8           3.9150    -1.6680     1.1580 C.3        1 MOL       0.000000
      9 C9           0.9110    -0.7480    -1.0540 C.3        1 MOL       0.000000
     10 C10          1.0530     1.9990     0.3140 C.3        1 MOL       0.000000
     11 N1           1.8350    -1.3190    -0.0700 N.am       1 MOL       0.000000
     12 O1           3.5840     0.1130    -0.4100 O.2        1 MOL       0.000000
     13 O2           1.7570     2.1660    -0.9040 O.3        1 MOL       0.000000
     14 Cl1         -4.1940    -1.0770    -0.0230 Cl         1 MOL       0.000000
     15 H1          -1.3750     2.7100     1.1920 H          1 MOL       0.000000
     16 H2          -3.5270     1.4860     1.1080 H          1 MOL       0.000000
     17 H3          -1.5860    -1.7190    -0.9830 H          1 MOL       0.000000
     18 H4           3.3660    -2.4940     1.6200 H          1 MOL       0.000000
     19 H5           4.7960    -2.0700     0.6480 H          1 MOL       0.000000
     20 H6           4.2720    -0.9920     1.9400 H          1 MOL       0.000000
     21 H7           0.5770    -1.5570    -1.7140 H          1 MOL       0.000000
     22 H8           1.4780    -0.0370    -1.6510 H          1 MOL       0.000000
     23 H9           0.7910     2.9940     0.6970 H          1 MOL       0.000000
     24 H10          1.6990     1.5330     1.0730 H          1 MOL       0.000000
     25 H11          1.5030    -2.1020     0.4760 H          1 MOL       0.000000
     26 H12          2.5370     1.5750    -0.8640 H          1 MOL       0.000000
@<TRIPOS>BOND
     1     1     2 ar  
     2     1     4 ar  
     3     1    15 1   
     4     2     6 ar  
     5     2    16 1   
     6     3     5 ar  
     7     3     6 ar  
     8     3    17 1   
     9     4     5 ar  
    10     4    10 1   
    11     5     9 1   
    12     6    14 1   
    13     7     8 1   
    14     7    11 am  
    15     7    12 2   
    16     8    18 1   
    17     8    19 1   
    18     8    20 1   
    19     9    11 1   
    20     9    21 1   
    21     9    22 1   
    22    10    13 1   
    23    10    23 1   
    24    10    24 1   
    25    11    25 1   
    26    13    26 1   
@<TRIPOS>SUBSTRUCTURE
     1 MOL         1 TEMP              0 ****  ****    0 ROOT
