@<TRIPOS>MOLECULE
MOL
   26    26     1     0     0
SMALL
No Charge or Current Charge


@<TRIPOS>ATOM
 1  C1  -1.410000  1.727000  0.727000  C.ar  1  MOL  -0.204918 
 2  C2  -2.630000  1.050000  0.683000  C.ar  1  MOL  -0.071483 
 3  C3  -1.525000  -0.751000  -0.493000  C.ar  1  MOL  -0.057063 
 4  C4  -0.236000  1.193000  0.186000  C.ar  1  MOL  0.036065 
 5  C5  -0.303000  -0.074000  -0.434000  C.ar  1  MOL  0.000503 
 6  C6  -2.674000  -0.194000  0.065000  C.ar  1  MOL  -0.060896 
 7  C7  3.098000  -0.871000  0.155000  C.2  1  MOL  0.510929 
 8  C8  3.915000  -1.668000  1.158000  C.3  1  MOL  -0.313908 
 9  C9  0.911000  -0.748000  -1.054000  C.3  1  MOL  -0.127512 
 10  C10  1.053000  1.999000  0.314000  C.3  1  MOL  0.222997 
 11  N1  1.835000  -1.319000  -0.070000  N.am  1  MOL  -0.353167 
 12  O1  3.584000  0.113000  -0.410000  O.2  1  MOL  -0.514977 
 13  O2  1.757000  2.166000  -0.904000  O.3  1  MOL  -0.606664 
 14  Cl1  -4.194000  -1.077000  -0.023000  Cl  1  MOL  -0.117604 
 15  H1  -1.375000  2.710000  1.192000  H  1  MOL  0.158589 
 16  H2  -3.527000  1.486000  1.108000  H  1  MOL  0.147127 
 17  H3  -1.586000  -1.719000  -0.983000  H  1  MOL  0.131755 
 18  H4  3.366000  -2.494000  1.620000  H  1  MOL  0.111818 
 19  H5  4.796000  -2.070000  0.648000  H  1  MOL  0.116842 
 20  H6  4.272000  -0.992000  1.940000  H  1  MOL  0.089295 
 21  H7  0.577000  -1.557000  -1.714000  H  1  MOL  0.111143 
 22  H8  1.478000  -0.037000  -1.651000  H  1  MOL  0.111143 
 23  H9  0.791000  2.994000  0.697000  H  1  MOL  0.012916 
 24  H10  1.699000  1.533000  1.073000  H  1  MOL  0.012916 
 25  H11  1.503000  -2.102000  0.476000  H  1  MOL  0.256949 
 26  H12  2.537000  1.575000  -0.864000  H  1  MOL  0.397203 
@<TRIPOS>BOND
     1     1     2 ar  
     2     1     4 ar  
     3     1    15 1   
     4     2     6 ar  
     5     2    16 1   
     6     3     5 ar  
     7     3     6 ar  
     8     3    17 1   
     9     4     5 ar  
    10     4    10 1   
    11     5     9 1   
    12     6    14 1   
    13     7     8 1   
    14     7    11 am  
    15     7    12 2   
    16     8    18 1   
    17     8    19 1   
    18     8    20 1   
    19     9    11 1   
    20     9    21 1   
    21     9    22 1   
    22    10    13 1   
    23    10    23 1   
    24    10    24 1   
    25    11    25 1   
    26    13    26 1   
@<TRIPOS>SUBSTRUCTURE
     1 MOL         1 TEMP              0 ****  ****    0 ROOT
