@<TRIPOS>MOLECULE
MOL
   23    23     1     0     0
SMALL
No Charge or Current Charge


@<TRIPOS>ATOM
 1  C1  -3.484000  0.258000  -0.300000  C.ar  1  MOL  -0.079620 
 2  C2  -2.811000  -0.746000  -1.000000  C.ar  1  MOL  -0.187041 
 3  C3  -2.885000  0.847000  0.815000  C.ar  1  MOL  -0.187041 
 4  C4  -1.546000  -1.161000  -0.587000  C.ar  1  MOL  -0.136653 
 5  C5  -1.618000  0.433000  1.227000  C.ar  1  MOL  -0.136653 
 6  C6  -0.938000  -0.577000  0.533000  C.ar  1  MOL  0.149849 
 7  C7  1.076000  2.121000  -0.914000  C.3  1  MOL  0.017566 
 8  C8  0.428000  -1.018000  0.981000  C.3  1  MOL  -0.400998 
 9  N1  1.627000  1.347000  0.210000  N.3  1  MOL  -0.613581 
 10  O1  3.053000  -0.685000  0.694000  O.2  1  MOL  -0.489319 
 11  O2  1.590000  -0.685000  -1.407000  O.2  1  MOL  -0.489319 
 12  S1  1.810000  -0.327000  -0.001000  S.o2  1  MOL  0.879864 
 13  H1  -4.472000  0.578000  -0.620000  H  1  MOL  0.130048 
 14  H2  -3.273000  -1.207000  -1.869000  H  1  MOL  0.149138 
 15  H3  -3.403000  1.627000  1.366000  H  1  MOL  0.149138 
 16  H4  -1.019000  -1.933000  -1.140000  H  1  MOL  0.148502 
 17  H5  -1.150000  0.895000  2.093000  H  1  MOL  0.148502 
 18  H6  0.058000  1.787000  -1.117000  H  1  MOL  0.085324 
 19  H7  1.667000  2.037000  -1.833000  H  1  MOL  0.073678 
 20  H8  1.037000  3.168000  -0.598000  H  1  MOL  0.067220 
 21  H9  0.571000  -2.099000  0.882000  H  1  MOL  0.175801 
 22  H10  0.644000  -0.730000  2.013000  H  1  MOL  0.175801 
 23  H11  2.529000  1.692000  0.535000  H  1  MOL  0.369792 
@<TRIPOS>BOND
     1     1     2 ar  
     2     1     3 ar  
     3     1    13 1   
     4     2     4 ar  
     5     2    14 1   
     6     3     5 ar  
     7     3    15 1   
     8     4     6 ar  
     9     4    16 1   
    10     5     6 ar  
    11     5    17 1   
    12     6     8 1   
    13     7     9 1   
    14     7    18 1   
    15     7    19 1   
    16     7    20 1   
    17     8    12 1   
    18     8    21 1   
    19     8    22 1   
    20     9    12 1   
    21     9    23 1   
    22    10    12 2   
    23    11    12 2   
@<TRIPOS>SUBSTRUCTURE
     1 MOL         1 TEMP              0 ****  ****    0 ROOT
