@<TRIPOS>MOLECULE
MOL
   23    23     1     0     0
SMALL
No Charge or Current Charge


@<TRIPOS>ATOM
      1 C1          -3.4840     0.2580    -0.3000 C.ar       1 MOL       0.000000
      2 C2          -2.8110    -0.7460    -1.0000 C.ar       1 MOL       0.000000
      3 C3          -2.8850     0.8470     0.8150 C.ar       1 MOL       0.000000
      4 C4          -1.5460    -1.1610    -0.5870 C.ar       1 MOL       0.000000
      5 C5          -1.6180     0.4330     1.2270 C.ar       1 MOL       0.000000
      6 C6          -0.9380    -0.5770     0.5330 C.ar       1 MOL       0.000000
      7 C7           1.0760     2.1210    -0.9140 C.3        1 MOL       0.000000
      8 C8           0.4280    -1.0180     0.9810 C.3        1 MOL       0.000000
      9 N1           1.6270     1.3470     0.2100 N.3        1 MOL       0.000000
     10 O1           3.0530    -0.6850     0.6940 O.2        1 MOL       0.000000
     11 O2           1.5900    -0.6850    -1.4070 O.2        1 MOL       0.000000
     12 S1           1.8100    -0.3270    -0.0010 S.o2       1 MOL       0.000000
     13 H1          -4.4720     0.5780    -0.6200 H          1 MOL       0.000000
     14 H2          -3.2730    -1.2070    -1.8690 H          1 MOL       0.000000
     15 H3          -3.4030     1.6270     1.3660 H          1 MOL       0.000000
     16 H4          -1.0190    -1.9330    -1.1400 H          1 MOL       0.000000
     17 H5          -1.1500     0.8950     2.0930 H          1 MOL       0.000000
     18 H6           0.0580     1.7870    -1.1170 H          1 MOL       0.000000
     19 H7           1.6670     2.0370    -1.8330 H          1 MOL       0.000000
     20 H8           1.0370     3.1680    -0.5980 H          1 MOL       0.000000
     21 H9           0.5710    -2.0990     0.8820 H          1 MOL       0.000000
     22 H10          0.6440    -0.7300     2.0130 H          1 MOL       0.000000
     23 H11          2.5290     1.6920     0.5350 H          1 MOL       0.000000
@<TRIPOS>BOND
     1     1     2 ar  
     2     1     3 ar  
     3     1    13 1   
     4     2     4 ar  
     5     2    14 1   
     6     3     5 ar  
     7     3    15 1   
     8     4     6 ar  
     9     4    16 1   
    10     5     6 ar  
    11     5    17 1   
    12     6     8 1   
    13     7     9 1   
    14     7    18 1   
    15     7    19 1   
    16     7    20 1   
    17     8    12 1   
    18     8    21 1   
    19     8    22 1   
    20     9    12 1   
    21     9    23 1   
    22    10    12 2   
    23    11    12 2   
@<TRIPOS>SUBSTRUCTURE
     1 MOL         1 TEMP              0 ****  ****    0 ROOT
