@<TRIPOS>MOLECULE
*****
 19 19 0 0 0
SMALL
GASTEIGER

@<TRIPOS>ATOM
      1 C           1.0422   -0.7010    1.4502 C.3     1  UNL1        0.0122
      2 C           2.5375   -0.8609    1.4939 C.2     1  UNL1        0.2102
      3 O           3.0821   -1.9272    1.7551 O.2     1  UNL1        0.2761
      4 N           3.2146    0.2970    1.1938 N.am    1  UNL1        0.3109
      5 C           4.6565    0.3673    1.2289 C.3     1  UNL1        0.0430
      6 C           5.1122    0.7651    2.5979 C.ar    1  UNL1        0.0083
      7 C           5.8763    0.0297    3.4877 C.ar    1  UNL1        0.0486
      8 C           6.1392    0.7395    4.6972 C.ar    1  UNL1        0.0359
      9 C           5.5548    1.9784    4.6776 C.ar    1  UNL1        0.0783
     10 CL          5.6043    3.1547    5.9276 Cl      1  UNL1        0.0758
     11 S           4.7257    2.3124    3.2416 S.2     1  UNL1        0.0802
     12 H           0.5634   -1.6571    1.6790 H       1  UNL1        0.0322
     13 H           0.7337   -0.3841    0.4498 H       1  UNL1        0.0322
     14 H           0.7233    0.0399    2.1885 H       1  UNL1        0.0322
     15 H           2.7030    1.1678    1.1503 H       1  UNL1        0.1490
     16 H           4.9731    1.1077    0.4868 H       1  UNL1        0.0517
     17 H           5.0807   -0.6019    0.9444 H       1  UNL1        0.0517
     18 H           6.2294   -0.9742    3.2782 H       1  UNL1        0.0627
     19 H           6.7182    0.3544    5.5269 H       1  UNL1        0.0638
@<TRIPOS>BOND
     1     1     2    1
     2     2     3    2
     3     2     4   am
     4     4     5    1
     5     5     6    1
     6     6     7   ar
     7     7     8   ar
     8     8     9   ar
     9     9    10    1
    10     9    11   ar
    11     6    11   ar
    12     1    12    1
    13     1    13    1
    14     1    14    1
    15     4    15    1
    16     5    16    1
    17     5    17    1
    18     7    18    1
    19     8    19    1
