@<TRIPOS>MOLECULE
*****
 31 31 0 0 0
SMALL
GASTEIGER

@<TRIPOS>ATOM
      1 C           1.0552    0.3598   -0.4518 C.3     1  UNL1        0.0030
      2 N           2.5113    0.3839   -0.4746 N.am    1  UNL1        0.3032
      3 C           3.1844    1.5189    0.1453 C.3     1  UNL1        0.0030
      4 C           3.1778   -0.6748   -1.0673 C.2     1  UNL1        0.2602
      5 O           2.6156   -1.6185   -1.6296 O.2     1  UNL1        0.2697
      6 C           4.7028   -0.6650   -1.0174 C.3     1  UNL1        0.0446
      7 N           5.3084   -1.4471   -2.1632 N.4     1  UNL1        0.2357
      8 H           4.9180   -2.4035   -2.1249 H       1  UNL1        0.2021
      9 H           4.9272   -1.0663   -3.0418 H       1  UNL1        0.2021
     10 C           6.7923   -1.4330   -2.1813 C.3     1  UNL1        0.0222
     11 C           7.3665   -2.1038   -0.9427 C.3     1  UNL1        0.0097
     12 C           8.7727   -2.4694   -1.3766 C.3     1  UNL1        0.0478
     13 C           8.6165   -2.9106   -2.8270 C.3     1  UNL1        0.0478
     14 C           7.3508   -2.2275   -3.3567 C.3     1  UNL1        0.0097
     15 H           0.6507    1.2620    0.0148 H       1  UNL1        0.0428
     16 H           0.7252   -0.5180    0.1121 H       1  UNL1        0.0428
     17 H           0.6826    0.2846   -1.4773 H       1  UNL1        0.0428
     18 H           2.4723    2.2351    0.5603 H       1  UNL1        0.0428
     19 H           3.7893    2.0239   -0.6143 H       1  UNL1        0.0428
     20 H           3.8417    1.1523    0.9391 H       1  UNL1        0.0428
     21 H           5.0130   -1.1503   -0.0876 H       1  UNL1        0.0912
     22 H           5.1119    0.3420   -1.0931 H       1  UNL1        0.0912
     23 H           7.1088   -0.3847   -2.2506 H       1  UNL1        0.0850
     24 H           6.8023   -3.0055   -0.6762 H       1  UNL1        0.0320
     25 H           7.3770   -1.4354   -0.0758 H       1  UNL1        0.0320
     26 H           9.2049   -3.2535   -0.7479 H       1  UNL1        0.0267
     27 H           9.4255   -1.5905   -1.3175 H       1  UNL1        0.0267
     28 H           8.4961   -3.9987   -2.8787 H       1  UNL1        0.0267
     29 H           9.5011   -2.6501   -3.4170 H       1  UNL1        0.0267
     30 H           6.6479   -2.9801   -3.7311 H       1  UNL1        0.0320
     31 H           7.5914   -1.5624   -4.1940 H       1  UNL1        0.0320
@<TRIPOS>BOND
     1     1     2    1
     2     2     3    1
     3     2     4   am
     4     4     5    2
     5     4     6    1
     6     6     7    1
     7     7     8    1
     8     7     9    1
     9     7    10    1
    10    10    11    1
    11    11    12    1
    12    12    13    1
    13    13    14    1
    14    10    14    1
    15     1    15    1
    16     1    16    1
    17     1    17    1
    18     3    18    1
    19     3    19    1
    20     3    20    1
    21     6    21    1
    22     6    22    1
    23    10    23    1
    24    11    24    1
    25    11    25    1
    26    12    26    1
    27    12    27    1
    28    13    28    1
    29    13    29    1
    30    14    30    1
    31    14    31    1
