@<TRIPOS>MOLECULE
*****
 23 23 0 0 0
SMALL
GASTEIGER

@<TRIPOS>ATOM
      1 N           2.2545   -0.1715    1.3443 N.pl3   1  UNL1        0.2544
      2 C           2.5097   -0.1122    0.0222 C.cat   1  UNL1        0.3268
      3 N           2.0388    0.9814   -0.6085 N.2     1  UNL1        0.2952
      4 H           2.1588    1.1374   -1.5978 H       1  UNL1        0.2542
      5 H           1.5309    1.6983   -0.1079 H       1  UNL1        0.2542
      6 N           3.2021   -1.0950   -0.6343 N.pl3   1  UNL1        0.2278
      7 C           3.7237   -2.3201    0.0367 C.3     1  UNL1        0.0604
      8 C           3.2244   -3.5766   -0.6681 C.3     1  UNL1        0.0238
      9 C           3.5838   -3.5513   -2.1501 C.3     1  UNL1        0.0477
     10 C           3.0572   -2.2828   -2.8142 C.3     1  UNL1        0.0238
     11 C           3.5431   -1.0342   -2.0851 C.3     1  UNL1        0.0604
     12 H           1.7384    0.5608    1.8130 H       1  UNL1        0.2411
     13 H           2.5681   -0.9310    1.9293 H       1  UNL1        0.2411
     14 H           3.4268   -2.3634    1.0846 H       1  UNL1        0.0634
     15 H           4.8185   -2.2689    0.0097 H       1  UNL1        0.0634
     16 H           2.1346   -3.6419   -0.5619 H       1  UNL1        0.0294
     17 H           3.6533   -4.4665   -0.1949 H       1  UNL1        0.0294
     18 H           3.1665   -4.4329   -2.6490 H       1  UNL1        0.0267
     19 H           4.6736   -3.6013   -2.2647 H       1  UNL1        0.0267
     20 H           1.9605   -2.3014   -2.8072 H       1  UNL1        0.0294
     21 H           3.3766   -2.2511   -3.8615 H       1  UNL1        0.0294
     22 H           3.1119   -0.1549   -2.5638 H       1  UNL1        0.0634
     23 H           4.6330   -0.9425   -2.1610 H       1  UNL1        0.0634
@<TRIPOS>BOND
     1     1     2    1
     2     2     3    2
     3     3     4    1
     4     3     5    1
     5     2     6    1
     6     6     7    1
     7     7     8    1
     8     8     9    1
     9     9    10    1
    10    10    11    1
    11     6    11    1
    12     1    12    1
    13     1    13    1
    14     7    14    1
    15     7    15    1
    16     8    16    1
    17     8    17    1
    18     9    18    1
    19     9    19    1
    20    10    20    1
    21    10    21    1
    22    11    22    1
    23    11    23    1
