@<TRIPOS>MOLECULE
MOL
   24    24     1     0     0
SMALL
No Charge or Current Charge


@<TRIPOS>ATOM
 1  C1  1.299000  -1.622000  -0.141000  C.ar  1  MOL  -0.200459 
 2  C2  -0.069000  -1.397000  -0.258000  C.ar  1  MOL  -0.200904 
 3  C3  0.308000  0.995000  -0.078000  C.ar  1  MOL  0.032124 
 4  C4  2.190000  -0.548000  0.013000  C.ar  1  MOL  0.401713 
 5  C5  -0.557000  -0.092000  -0.219000  C.ar  1  MOL  -0.097638 
 6  C6  1.672000  0.764000  0.041000  C.ar  1  MOL  -0.121116 
 7  C7  -4.302000  -0.675000  1.183000  C.3  1  MOL  0.017566 
 8  C8  4.100000  -1.979000  0.097000  C.3  1  MOL  -0.015901 
 9  N1  -2.878000  -0.297000  1.134000  N.3  1  MOL  -0.613581 
 10  O1  -2.498000  1.652000  -0.570000  O.2  1  MOL  -0.489319 
 11  O2  -2.872000  -0.748000  -1.355000  O.2  1  MOL  -0.489319 
 12  O3  3.529000  -0.676000  0.134000  O.3  1  MOL  -0.337172 
 13  S1  -2.312000  0.205000  -0.391000  S.o2  1  MOL  0.879864 
 14  Cl1  2.765000  2.117000  0.221000  Cl  1  MOL  -0.094975 
 15  H1  1.674000  -2.638000  -0.174000  H  1  MOL  0.132667 
 16  H2  -0.752000  -2.229000  -0.386000  H  1  MOL  0.212694 
 17  H3  -0.080000  2.007000  -0.074000  H  1  MOL  0.131927 
 18  H4  -4.475000  -1.472000  0.458000  H  1  MOL  0.085324 
 19  H5  -4.987000  0.156000  0.971000  H  1  MOL  0.073678 
 20  H6  -4.504000  -1.060000  2.187000  H  1  MOL  0.067220 
 21  H7  5.175000  -1.829000  0.209000  H  1  MOL  0.085271 
 22  H8  3.898000  -2.477000  -0.859000  H  1  MOL  0.085271 
 23  H9  3.731000  -2.600000  0.922000  H  1  MOL  0.085271 
 24  H10  -2.657000  0.438000  1.805000  H  1  MOL  0.369792 
@<TRIPOS>BOND
     1     1     2 ar  
     2     1     4 ar  
     3     1    15 1   
     4     2     5 ar  
     5     2    16 1   
     6     3     5 ar  
     7     3     6 ar  
     8     3    17 1   
     9     4     6 ar  
    10     4    12 1   
    11     5    13 1   
    12     6    14 1   
    13     7     9 1   
    14     7    18 1   
    15     7    19 1   
    16     7    20 1   
    17     8    12 1   
    18     8    21 1   
    19     8    22 1   
    20     8    23 1   
    21     9    13 1   
    22     9    24 1   
    23    10    13 2   
    24    11    13 2   
@<TRIPOS>SUBSTRUCTURE
     1 MOL         1 TEMP              0 ****  ****    0 ROOT
