@<TRIPOS>MOLECULE
MOL
   24    24     1     0     0
SMALL
No Charge or Current Charge


@<TRIPOS>ATOM
      1 C1           1.2990    -1.6220    -0.1410 C.ar       1 MOL       0.000000
      2 C2          -0.0690    -1.3970    -0.2580 C.ar       1 MOL       0.000000
      3 C3           0.3080     0.9950    -0.0780 C.ar       1 MOL       0.000000
      4 C4           2.1900    -0.5480     0.0130 C.ar       1 MOL       0.000000
      5 C5          -0.5570    -0.0920    -0.2190 C.ar       1 MOL       0.000000
      6 C6           1.6720     0.7640     0.0410 C.ar       1 MOL       0.000000
      7 C7          -4.3020    -0.6750     1.1830 C.3        1 MOL       0.000000
      8 C8           4.1000    -1.9790     0.0970 C.3        1 MOL       0.000000
      9 N1          -2.8780    -0.2970     1.1340 N.3        1 MOL       0.000000
     10 O1          -2.4980     1.6520    -0.5700 O.2        1 MOL       0.000000
     11 O2          -2.8720    -0.7480    -1.3550 O.2        1 MOL       0.000000
     12 O3           3.5290    -0.6760     0.1340 O.3        1 MOL       0.000000
     13 S1          -2.3120     0.2050    -0.3910 S.o2       1 MOL       0.000000
     14 Cl1          2.7650     2.1170     0.2210 Cl         1 MOL       0.000000
     15 H1           1.6740    -2.6380    -0.1740 H          1 MOL       0.000000
     16 H2          -0.7520    -2.2290    -0.3860 H          1 MOL       0.000000
     17 H3          -0.0800     2.0070    -0.0740 H          1 MOL       0.000000
     18 H4          -4.4750    -1.4720     0.4580 H          1 MOL       0.000000
     19 H5          -4.9870     0.1560     0.9710 H          1 MOL       0.000000
     20 H6          -4.5040    -1.0600     2.1870 H          1 MOL       0.000000
     21 H7           5.1750    -1.8290     0.2090 H          1 MOL       0.000000
     22 H8           3.8980    -2.4770    -0.8590 H          1 MOL       0.000000
     23 H9           3.7310    -2.6000     0.9220 H          1 MOL       0.000000
     24 H10         -2.6570     0.4380     1.8050 H          1 MOL       0.000000
@<TRIPOS>BOND
     1     1     2 ar  
     2     1     4 ar  
     3     1    15 1   
     4     2     5 ar  
     5     2    16 1   
     6     3     5 ar  
     7     3     6 ar  
     8     3    17 1   
     9     4     6 ar  
    10     4    12 1   
    11     5    13 1   
    12     6    14 1   
    13     7     9 1   
    14     7    18 1   
    15     7    19 1   
    16     7    20 1   
    17     8    12 1   
    18     8    21 1   
    19     8    22 1   
    20     8    23 1   
    21     9    13 1   
    22     9    24 1   
    23    10    13 2   
    24    11    13 2   
@<TRIPOS>SUBSTRUCTURE
     1 MOL         1 TEMP              0 ****  ****    0 ROOT
