@<TRIPOS>MOLECULE
MOL
   18    17     1     0     0
SMALL
No Charge or Current Charge


@<TRIPOS>ATOM
      1 C1          -1.3250     0.0540     0.1610 C.2        1 MOL       0.000000
      2 C2          -2.5290     0.0720    -0.7720 C.3        1 MOL       0.000000
      3 C3           2.0950     1.1420    -0.4300 C.3        1 MOL       0.000000
      4 C4           2.1610    -0.3660    -0.1720 C.3        1 MOL       0.000000
      5 C5           0.9260    -0.9260     0.5490 C.3        1 MOL       0.000000
      6 N1          -0.3080    -0.7840    -0.2110 N.am       1 MOL       0.000000
      7 O1          -1.2860     0.7440     1.1730 O.2        1 MOL       0.000000
      8 H1          -2.4310    -0.5880    -1.6400 H          1 MOL       0.000000
      9 H2          -3.4170    -0.2200    -0.2040 H          1 MOL       0.000000
     10 H3          -2.6890     1.0960    -1.1210 H          1 MOL       0.000000
     11 H4           1.2400     1.3980    -1.0660 H          1 MOL       0.000000
     12 H5           1.9840     1.6980     0.5080 H          1 MOL       0.000000
     13 H6           3.0030     1.4960    -0.9300 H          1 MOL       0.000000
     14 H7           3.0410    -0.6020     0.4420 H          1 MOL       0.000000
     15 H8           2.3020    -0.9010    -1.1220 H          1 MOL       0.000000
     16 H9           1.0820    -1.9870     0.7840 H          1 MOL       0.000000
     17 H10          0.7580    -0.3960     1.4900 H          1 MOL       0.000000
     18 H11         -0.4040    -1.3100    -1.0690 H          1 MOL       0.000000
@<TRIPOS>BOND
     1     1     2 1   
     2     1     6 am  
     3     1     7 2   
     4     2     8 1   
     5     2     9 1   
     6     2    10 1   
     7     3     4 1   
     8     3    11 1   
     9     3    12 1   
    10     3    13 1   
    11     4     5 1   
    12     4    14 1   
    13     4    15 1   
    14     5     6 1   
    15     5    16 1   
    16     5    17 1   
    17     6    18 1   
@<TRIPOS>SUBSTRUCTURE
     1 MOL         1 TEMP              0 ****  ****    0 ROOT
