@<TRIPOS>MOLECULE
MOL
   18    17     1     0     0
SMALL
No Charge or Current Charge


@<TRIPOS>ATOM
 1  C1  -1.325000  0.054000  0.161000  C.2  1  MOL  0.419930 
 2  C2  -2.529000  0.072000  -0.772000  C.3  1  MOL  -0.016420 
 3  C3  2.095000  1.142000  -0.430000  C.3  1  MOL  -0.128346 
 4  C4  2.161000  -0.366000  -0.172000  C.3  1  MOL  0.093856 
 5  C5  0.926000  -0.926000  0.549000  C.3  1  MOL  -0.045656 
 6  N1  -0.308000  -0.784000  -0.211000  N.am  1  MOL  -0.425469 
 7  O1  -1.286000  0.744000  1.173000  O.2  1  MOL  -0.497640 
 8  H1  -2.431000  -0.588000  -1.640000  H  1  MOL  0.031380 
 9  H2  -3.417000  -0.220000  -0.204000  H  1  MOL  0.031380 
 10  H3  -2.689000  1.096000  -1.121000  H  1  MOL  0.031380 
 11  H4  1.240000  1.398000  -1.066000  H  1  MOL  0.034298 
 12  H5  1.984000  1.698000  0.508000  H  1  MOL  0.034298 
 13  H6  3.003000  1.496000  -0.930000  H  1  MOL  0.034298 
 14  H7  3.041000  -0.602000  0.442000  H  1  MOL  -0.003787 
 15  H8  2.302000  -0.901000  -1.122000  H  1  MOL  -0.003787 
 16  H9  1.082000  -1.987000  0.784000  H  1  MOL  0.074939 
 17  H10  0.758000  -0.396000  1.490000  H  1  MOL  0.074939 
 18  H11  -0.404000  -1.310000  -1.069000  H  1  MOL  0.260405 
@<TRIPOS>BOND
     1     1     2 1   
     2     1     6 am  
     3     1     7 2   
     4     2     8 1   
     5     2     9 1   
     6     2    10 1   
     7     3     4 1   
     8     3    11 1   
     9     3    12 1   
    10     3    13 1   
    11     4     5 1   
    12     4    14 1   
    13     4    15 1   
    14     5     6 1   
    15     5    16 1   
    16     5    17 1   
    17     6    18 1   
@<TRIPOS>SUBSTRUCTURE
     1 MOL         1 TEMP              0 ****  ****    0 ROOT
