@<TRIPOS>MOLECULE
1K21.H
   70    71     1     0     0
SMALL
No Charge or Current Charge


@<TRIPOS>ATOM
      1 C1         16.1560  -11.6220   20.2070 C.2       1 IGN      0.569000
      2 O2         15.4510  -12.5640   19.8270 O.2       1 IGN     -0.570000
      3 N3         15.6340  -10.3970   20.3990 N.am      1 IGN     -0.730100
      4 H1         16.2620   -9.6700   20.7100 H         1 IGN      0.370000
      5 C4         14.2220  -10.0260   20.1930 C.3       1 IGN      0.300100
      6 H2         13.7180  -10.8380   19.6700 H         1 IGN      0.000000
      7 H3         14.1810   -9.1220   19.5860 H         1 IGN      0.000000
      8 C5         13.4950   -9.7650   21.5200 C.3       1 IGN      0.000000
      9 H4         13.6080   -8.7140   21.7840 H         1 IGN      0.000000
     10 H5         13.9430  -10.3850   22.2970 H         1 IGN      0.000000
     11 C6         12.0090  -10.0930   21.4210 C.3       1 IGN      0.327600
     12 H6         11.7940  -10.4540   20.4150 H         1 IGN      0.000000
     13 H7         11.4350   -9.1870   21.6120 H         1 IGN      0.000000
     14 N7         11.6090  -11.1220   22.3900 N.3       1 IGN     -0.844300
     15 H8         11.7750  -12.0850   22.1330 H         1 IGN      0.450000
     16 C8         11.0030  -10.8830   23.6710 C.cat     1 IGN      1.200000
     17 N9         10.6870  -11.9160   24.4420 N.3       1 IGN     -0.966700
     18 H9         10.2580  -11.7610   25.3430 H         1 IGN      0.450000
     19 H10        10.8750  -12.8570   24.1280 H         1 IGN      0.450000
     20 N10        10.7580   -9.6370   24.0780 N.3       1 IGN     -0.966700
     21 H12        11.0010   -8.8550   23.4860 H         1 IGN      0.450000
     22 H11        10.3290   -9.4750   24.9780 H         1 IGN      0.450000
     23 N11        17.9500  -13.2540   21.0630 N.am      1 IGN     -0.660200
     24 C12        17.6790  -11.8530   20.4870 C.3       1 IGN      0.361100
     25 H13        18.0420  -11.1630   21.2490 H         1 IGN      0.000000
     26 C13        18.4230  -11.6090   19.1400 C.3       1 IGN      0.000000
     27 H14        18.3840  -10.5440   18.9090 H         1 IGN      0.000000
     28 H15        17.9150  -12.1700   18.3560 H         1 IGN      0.000000
     29 C14        19.8990  -12.0490   19.1810 C.3       1 IGN      0.000000
     30 H16        20.4080  -11.5240   19.9890 H         1 IGN      0.000000
     31 H17        20.3740  -11.8020   18.2320 H         1 IGN      0.000000
     32 C15        20.0010  -13.5800   19.4210 C.3       1 IGN      0.000000
     33 H18        20.9630  -13.7830   19.8910 H         1 IGN      0.000000
     34 H19        19.9590  -14.0760   18.4510 H         1 IGN      0.000000
     35 C16        18.8870  -14.1930   20.3230 C.3       1 IGN      0.300100
     36 H20        18.2700  -14.8260   19.6850 H         1 IGN      0.000000
     37 H21        19.3840  -14.8080   21.0730 H         1 IGN      0.000000
     38 O31        16.5740  -12.9000   22.8600 O.2       1 IGN     -0.570000
     39 C32        17.3450  -13.6610   22.2510 C.2       1 IGN      0.569000
     40 C33        17.5520  -15.0700   22.9300 C.3       1 IGN      0.564000
     41 H22        18.3820  -15.5410   22.4030 H         1 IGN      0.000000
     42 C34        17.9260  -15.0000   24.4670 C.3       1 IGN      0.000000
     43 H23        17.6420  -15.9490   24.9220 H         1 IGN      0.000000
     44 H24        17.3440  -14.1940   24.9140 H         1 IGN      0.000000
     45 C51        20.4370  -14.8210   23.5540 C.3       1 IGN      0.000000
     46 H25        20.2180  -13.9980   22.8730 H         1 IGN      0.000000
     47 H26        20.2830  -15.7690   23.0390 H         1 IGN      0.000000
     48 C52        19.4520  -14.7400   24.8050 C.3       1 IGN      0.000000
     49 H27        19.6710  -15.5660   25.4820 H         1 IGN      0.000000
     50 C53        19.7200  -13.3720   25.5260 C.3       1 IGN      0.000000
     51 H28        19.0690  -13.2940   26.3970 H         1 IGN      0.000000
     52 H29        19.5020  -12.5570   24.8360 H         1 IGN      0.000000
     53 C54        21.2120  -13.2650   25.9910 C.3       1 IGN      0.000000
     54 H30        21.4330  -14.0750   26.6860 H         1 IGN      0.000000
     55 H31        21.3690  -12.3070   26.4870 H         1 IGN      0.000000
     56 C55        22.1600  -13.3700   24.7530 C.3       1 IGN      0.000000
     57 H32        23.1960  -13.3150   25.0870 H         1 IGN      0.000000
     58 H33        21.9540  -12.5460   24.0700 H         1 IGN      0.000000
     59 C56        21.9280  -14.7230   24.0130 C.3       1 IGN      0.000000
     60 H34        22.5800  -14.7760   23.1410 H         1 IGN      0.000000
     61 H35        22.1550  -15.5490   24.6870 H         1 IGN      0.000000
     62 N21        16.2730  -15.8300   22.8380 N.4       1 IGN     -0.906000
     63 H37        16.4140  -16.6720   23.3780 H         1 IGN      0.450000
     64 H36        15.5770  -15.2530   23.2890 H         1 IGN      0.450000
     65 C22        15.6600  -16.2720   21.5460 C.3       1 IGN      0.397000
     66 H38        16.2660  -17.0700   21.1170 H         1 IGN      0.000000
     67 H39        15.6300  -15.4280   20.8570 H         1 IGN      0.000000
     68 C23        14.2430  -16.7860   21.7690 C.2       1 IGN      0.906000
     69 O24        13.8040  -16.9480   22.9320 O.co2     1 IGN     -0.900000
     70 O25        13.5190  -17.0470   20.7800 O.co2     1 IGN     -0.900000
@<TRIPOS>BOND
     1    1    2 2   
     2    1    3 am  
     3    1   24 1   
     4    3    4 1   
     5    3    5 1   
     6    5    6 1   
     7    5    7 1   
     8    5    8 1   
     9    8    9 1   
    10    8   10 1   
    11    8   11 1   
    12   11   12 1   
    13   11   13 1   
    14   11   14 1   
    15   14   15 1   
    16   14   16 2   
    17   16   17 1   
    18   16   20 1   
    19   17   18 1   
    20   17   19 1   
    21   20   21 1   
    22   20   22 1   
    23   23   24 1   
    24   23   35 1   
    25   23   39 am  
    26   24   25 1   
    27   24   26 1   
    28   26   27 1   
    29   26   28 1   
    30   26   29 1   
    31   29   30 1   
    32   29   31 1   
    33   29   32 1   
    34   32   33 1   
    35   32   34 1   
    36   32   35 1   
    37   35   36 1   
    38   35   37 1   
    39   38   39 2   
    40   39   40 1   
    41   40   41 1   
    42   40   42 1   
    43   40   62 1   
    44   42   43 1   
    45   42   44 1   
    46   42   48 1   
    47   45   46 1   
    48   45   47 1   
    49   45   48 1   
    50   45   59 1   
    51   48   49 1   
    52   48   50 1   
    53   50   51 1   
    54   50   52 1   
    55   50   53 1   
    56   53   54 1   
    57   53   55 1   
    58   53   56 1   
    59   56   57 1   
    60   56   58 1   
    61   56   59 1   
    62   59   60 1   
    63   59   61 1   
    64   62   63 1   
    65   62   64 1   
    66   62   65 1   
    67   65   66 1   
    68   65   67 1   
    69   65   68 1   
    70   68   69 1   
    71   68   70 1   
@<TRIPOS>SUBSTRUCTURE
     1 IGN         1 TEMP              0 ****  ****    0 ROOT
