@<TRIPOS>MOLECULE
22U_1501
   52    54     1     0     0
SMALL
No Charge or Current Charge


@<TRIPOS>ATOM
      1 N1         16.3050  -15.7140   23.2320 N.4    1501 22U     -0.249328
      2 C2         17.6270  -15.0160   23.2870 C.3    1501 22U      0.094116
      3 C3         17.4490  -13.6090   22.7270 C.2    1501 22U      0.368413
      4 O1         16.4680  -12.9820   23.1440 O.2    1501 22U     -0.492813
      5 C1         18.1650  -14.9640   24.7310 C.3    1501 22U     -0.070977
      6 C16        19.5640  -14.3300   24.8080 C.ar   1501 22U      0.012197
      7 C17        20.6640  -14.8530   24.1100 C.ar   1501 22U     -0.156504
      8 C21        19.7440  -13.1800   25.5860 C.ar   1501 22U     -0.156504
      9 C18        21.9170  -14.2340   24.2320 C.ar   1501 22U     -0.148794
     10 C20        20.9960  -12.5890   25.7570 C.ar   1501 22U     -0.148794
     11 C19        22.0730  -13.0830   24.9910 C.ar   1501 22U     -0.088270
     12 N2         18.1330  -13.1630   21.6570 N.am   1501 22U     -0.157546
     13 C7         17.8360  -11.8460   21.1120 C.3    1501 22U     -0.002731
     14 C8         16.4020  -11.7500   20.6340 C.2    1501 22U      0.471078
     15 O2         15.8850  -12.6720   20.0140 O.2    1501 22U     -0.527531
     16 C6         18.8240  -11.7770   19.9170 C.3    1501 22U     -0.073545
     17 C5         19.9730  -12.7300   20.3520 C.3    1501 22U     -0.010475
     18 C4         19.2070  -13.9150   20.9810 C.3    1501 22U     -0.026285
     19 N3         15.7260  -10.6080   20.9320 N.am   1501 22U     -0.431276
     20 C9         14.3690  -10.4430   20.3670 C.3    1501 22U     -0.018674
     21 C10        13.3410  -10.3610   21.5130 C.ar   1501 22U     -0.008124
     22 C15        12.4440  -11.4030   21.6720 C.ar   1501 22U     -0.127628
     23 C14        11.5120  -11.3900   22.7010 C.ar   1501 22U     -0.204441
     24 C13        11.4380  -10.2950   23.5610 C.ar   1501 22U     -0.015034
     25 C12        12.3350   -9.2340   23.4100 C.ar   1501 22U     -0.030006
     26 C11        13.2880   -9.2590   22.3860 C.ar   1501 22U     -0.080374
     27 Cl1        12.2410   -7.8830   24.5260 Cl     1501 22U     -0.098421
     28 H1         15.9750  -15.7350   22.2780 H      1501 22U      0.281023
     29 H2         15.6390  -15.2190   23.8080 H      1501 22U      0.281023
     30 H3         16.4090  -16.6590   23.5730 H      1501 22U      0.281023
     31 H4         18.3560  -15.5640   22.6910 H      1501 22U      0.055830
     32 H5         18.2180  -15.9800   25.1220 H      1501 22U      0.082548
     33 H6         17.4790  -14.3750   25.3400 H      1501 22U      0.082548
     34 H7         20.5470  -15.7250   23.4840 H      1501 22U      0.139171
     35 H8         18.8860  -12.7360   26.0690 H      1501 22U      0.139171
     36 H9         22.7720  -14.6590   23.7280 H      1501 22U      0.159088
     37 H10        21.1370  -11.7770   26.4550 H      1501 22U      0.159088
     38 H11        23.0200  -12.5640   24.9950 H      1501 22U      0.146790
     39 H12        17.9440  -11.0370   21.8340 H      1501 22U      0.096676
     40 H13        19.1920  -10.7610   19.7720 H      1501 22U      0.063398
     41 H14        18.3520  -12.1270   18.9990 H      1501 22U      0.063398
     42 H15        20.6260  -12.2520   21.0820 H      1501 22U      0.048181
     43 H16        20.5620  -13.0530   19.4940 H      1501 22U      0.048181
     44 H17        18.8160  -14.5960   20.2250 H      1501 22U      0.068649
     45 H18        19.8230  -14.4710   21.6870 H      1501 22U      0.068649
     46 H19        16.1370   -9.8960   21.5190 H      1501 22U      0.316829
     47 H20        14.1350  -11.2960   19.7290 H      1501 22U      0.105080
     48 H21        14.3300   -9.5270   19.7780 H      1501 22U      0.105080
     49 H22        12.4690  -12.2370   20.9870 H      1501 22U      0.147695
     50 H23        10.8440  -12.2280   22.8350 H      1501 22U      0.170336
     51 H24        10.6910  -10.2670   24.3400 H      1501 22U      0.136617
     52 H25        13.9790   -8.4370   22.2660 H      1501 22U      0.132198
@<TRIPOS>BOND
     1    1    2 1   
     2    1   28 1   
     3    1   29 1   
     4    1   30 1   
     5    2    3 1   
     6    2    5 1   
     7    2   31 1   
     8    3    4 2   
     9    3   12 am  
    10    5    6 1   
    11    5   32 1   
    12    5   33 1   
    13    6    7 ar  
    14    6    8 ar  
    15    7    9 ar  
    16    7   34 1   
    17    8   10 ar  
    18    8   35 1   
    19    9   11 ar  
    20    9   36 1   
    21   10   11 ar  
    22   10   37 1   
    23   11   38 1   
    24   12   13 1   
    25   12   18 1   
    26   13   14 1   
    27   13   16 1   
    28   13   39 1   
    29   14   15 2   
    30   14   19 am  
    31   16   17 1   
    32   16   40 1   
    33   16   41 1   
    34   17   18 1   
    35   17   42 1   
    36   17   43 1   
    37   18   44 1   
    38   18   45 1   
    39   19   20 1   
    40   19   46 1   
    41   20   21 1   
    42   20   47 1   
    43   20   48 1   
    44   21   22 ar  
    45   21   26 ar  
    46   22   23 ar  
    47   22   49 1   
    48   23   24 ar  
    49   23   50 1   
    50   24   25 ar  
    51   24   51 1   
    52   25   26 ar  
    53   25   27 1   
    54   26   52 1   
@<TRIPOS>SUBSTRUCTURE
     1 22U         1 TEMP              0 ****  ****    0 ROOT
