@<TRIPOS>MOLECULE
32U_1000
   58    60     1     0     0
SMALL
No Charge or Current Charge


@<TRIPOS>ATOM
      1 N13        16.4070  -15.9690   23.2170 N.4    1000 32U     -0.293060
      2 C5_        17.7070  -15.2630   23.2930 C.3    1000 32U      0.066702
      3 C14        17.6420  -13.9000   22.6520 C.2    1000 32U      0.199381
      4 O32        16.7470  -13.1380   23.0070 O.2    1000 32U     -0.457042
      5 C33        18.2000  -15.1780   24.7660 C.3    1000 32U     -0.170990
      6 C6_        19.6330  -14.6780   24.8320 C.ar   1000 32U      0.021334
      7 C8_        20.7020  -15.4890   24.4400 C.ar   1000 32U     -0.120128
      8 C12        19.8990  -13.3910   25.2910 C.ar   1000 32U     -0.120128
      9 C9_        22.0080  -15.0060   24.5090 C.ar   1000 32U     -0.157764
     10 C11        21.1970  -12.9070   25.3620 C.ar   1000 32U     -0.157764
     11 C10        22.2700  -13.7180   24.9670 C.ar   1000 32U     -0.074756
     12 N1_        18.5340  -13.4950   21.7020 N.am   1000 32U     -0.037924
     13 C1_        18.4020  -12.1880   21.1060 C.3    1000 32U     -0.051873
     14 C7_        17.0550  -12.0990   20.4110 C.2    1000 32U      0.541491
     15 O22        16.6070  -13.0590   19.7980 O.2    1000 32U     -0.519342
     16 C2_        19.4930  -12.2580   19.9960 C.3    1000 32U     -0.105756
     17 C3_        20.5540  -13.1510   20.6840 C.3    1000 32U      0.008529
     18 C4_        19.7150  -14.2790   21.3400 C.3    1000 32U      0.015613
     19 N23        16.4400  -10.8940   20.4880 N.am   1000 32U     -0.524480
     20 C24        15.1610  -10.8260   19.7490 C.3    1000 32U      0.076326
     21 C25        14.0560  -10.8140   20.8210 C.ar   1000 32U      0.086133
     22 C26        13.6330  -12.0110   21.3850 C.ar   1000 32U     -0.130222
     23 C27        12.6360  -12.0280   22.3570 C.ar   1000 32U     -0.128371
     24 C28        12.0380  -10.8380   22.7830 C.ar   1000 32U     -0.131457
     25 C21        10.8850  -10.8290   23.9030 C.2    1000 32U      0.715984
     26 N46        10.5950   -9.6970   24.5280 N.3    1000 32U     -0.791707
     27 N47        10.2350  -11.9340   24.1950 N.3    1000 32U     -0.791707
     28 C29        12.4720   -9.6480   22.2100 C.ar   1000 32U     -0.128371
     29 C30        13.4720   -9.6230   21.2350 C.ar   1000 32U     -0.130222
     30 H131       16.1040  -16.0140   22.2550 H      1000 32U      0.311089
     31 H132       15.7200  -15.4690   23.7630 H      1000 32U      0.311089
     32 H133       16.5110  -16.9050   23.5810 H      1000 32U      0.311089
     33 H5_        18.4350  -15.8440   22.7260 H      1000 32U      0.103949
     34 H331       18.1470  -16.1690   25.2170 H      1000 32U      0.111115
     35 H332       17.5570  -14.4920   25.3180 H      1000 32U      0.111115
     36 H8_        20.5160  -16.4910   24.0830 H      1000 32U      0.134612
     37 H12        19.0800  -12.7580   25.5970 H      1000 32U      0.134612
     38 H9_        22.8270  -15.6400   24.2030 H      1000 32U      0.157583
     39 H11        21.3810  -11.9050   25.7220 H      1000 32U      0.157583
     40 H10        23.2840  -13.3490   25.0170 H      1000 32U      0.147114
     41 H1_        18.4910  -11.3600   21.8090 H      1000 32U      0.111109
     42 H21        19.8910  -11.2700   19.7620 H      1000 32U      0.070699
     43 H22        19.1100  -12.7200   19.0860 H      1000 32U      0.070699
     44 H31        21.1060  -12.5890   21.4370 H      1000 32U      0.044788
     45 H32        21.2510  -13.5600   19.9530 H      1000 32U      0.044788
     46 H41        19.4780  -15.0760   20.6350 H      1000 32U      0.046432
     47 H42        20.2100  -14.7020   22.2140 H      1000 32U      0.046432
     48 H23        16.8210  -10.1130   21.0030 H      1000 32U      0.317915
     49 H241       15.0510  -11.6950   19.1000 H      1000 32U      0.091689
     50 H242       15.1170   -9.9170   19.1490 H      1000 32U      0.091689
     51 H26        14.0830  -12.9400   21.0660 H      1000 32U      0.150317
     52 H27        12.3220  -12.9680   22.7850 H      1000 32U      0.160019
     53 H461        9.8720   -9.6800   25.2330 H      1000 32U      0.435928
     54 H462       11.0970   -8.8510   24.3000 H      1000 32U      0.435928
     55 H471        9.5110  -11.9230   24.8990 H      1000 32U      0.435928
     56 H472       10.4600  -12.7940   23.7160 H      1000 32U      0.435928
     57 H29        12.0240   -8.7180   22.5270 H      1000 32U      0.160019
     58 H30        13.7890   -8.6840   20.8060 H      1000 32U      0.150317
@<TRIPOS>BOND
     1    1    2 1   
     2    1   30 1   
     3    1   31 1   
     4    1   32 1   
     5    2    3 1   
     6    2    5 1   
     7    2   33 1   
     8    3    4 2   
     9    3   12 am  
    10    5    6 1   
    11    5   34 1   
    12    5   35 1   
    13    6    7 ar  
    14    6    8 ar  
    15    7    9 ar  
    16    7   36 1   
    17    8   10 ar  
    18    8   37 1   
    19    9   11 ar  
    20    9   38 1   
    21   10   11 ar  
    22   10   39 1   
    23   11   40 1   
    24   12   13 1   
    25   12   18 1   
    26   13   14 1   
    27   13   16 1   
    28   13   41 1   
    29   14   15 2   
    30   14   19 am  
    31   16   17 1   
    32   16   42 1   
    33   16   43 1   
    34   17   18 1   
    35   17   44 1   
    36   17   45 1   
    37   18   46 1   
    38   18   47 1   
    39   19   20 1   
    40   19   48 1   
    41   20   21 1   
    42   20   49 1   
    43   20   50 1   
    44   21   22 ar  
    45   21   29 ar  
    46   22   23 ar  
    47   22   51 1   
    48   23   24 ar  
    49   23   52 1   
    50   24   25 1   
    51   24   28 ar  
    52   25   26 2   
    53   25   27 1   
    54   26   53 1   
    55   26   54 1   
    56   27   55 1   
    57   27   56 1   
    58   28   29 ar  
    59   28   57 1   
    60   29   58 1   
@<TRIPOS>SUBSTRUCTURE
     1 32U         1 TEMP              0 ****  ****    0 ROOT
