@<TRIPOS>MOLECULE
Q37
   52    54     1     0     0
SMALL
No Charge or Current Charge


@<TRIPOS>ATOM
      1 N25        16.4040  -15.9780   23.1390 N.4       1 Q37     -0.223900
      2 H253       16.5580  -16.9160   23.4790 H         1 Q37      0.272200
      3 H251       16.1480  -16.0120   22.1630 H         1 Q37      0.272200
      4 H252       15.6590  -15.5470   23.6680 H         1 Q37      0.272200
      5 C7         17.6560  -15.1780   23.2980 C.3       1 Q37      0.136900
      6 H7         18.4590  -15.6970   22.7740 H         1 Q37      0.035400
      7 C6         17.4890  -13.8170   22.6640 C.2       1 Q37      0.360700
      8 O27        16.5140  -13.1720   23.0990 O.2       1 Q37     -0.496600
      9 C8         18.1060  -15.0860   24.7760 C.3       1 Q37     -0.084300
     10 H81        18.0870  -16.0790   25.2240 H         1 Q37      0.080700
     11 H82        17.4300  -14.4280   25.3220 H         1 Q37      0.080700
     12 C9         19.5390  -14.5190   24.8410 C.ar      1 Q37      0.020600
     13 C10        20.6090  -15.1320   24.1840 C.ar      1 Q37     -0.156200
     14 H10        20.4450  -16.0320   23.6090 H         1 Q37      0.138800
     15 C14        19.7850  -13.3530   25.5810 C.ar      1 Q37     -0.156200
     16 H14        18.9640  -12.8730   26.0930 H         1 Q37      0.138800
     17 C11        21.8970  -14.5790   24.2710 C.ar      1 Q37     -0.157100
     18 H11        22.7180  -15.0590   23.7590 H         1 Q37      0.159300
     19 C13        21.0660  -12.7950   25.6740 C.ar      1 Q37     -0.157100
     20 H13        21.2330  -11.8960   26.2490 H         1 Q37      0.159300
     21 C12        22.1320  -13.4240   25.0060 C.ar      1 Q37     -0.073500
     22 H12        23.1280  -13.0110   25.0640 H         1 Q37      0.142700
     23 N15        18.2870  -13.2700   21.7110 N.am      1 Q37     -0.145100
     24 C5         17.9940  -11.9640   21.1140 C.3       1 Q37     -0.015900
     25 H5         18.1090  -11.1290   21.8050 H         1 Q37      0.097500
     26 C4         16.5590  -11.8780   20.6380 C.2       1 Q37      0.482600
     27 O26        16.0900  -12.8400   20.0410 O.2       1 Q37     -0.533500
     28 C17        18.9790  -11.9450   19.9140 C.3       1 Q37     -0.075800
     29 H171       19.4060  -10.9520   19.7770 H         1 Q37      0.066800
     30 H172       18.4800  -12.2550   18.9960 H         1 Q37      0.066800
     31 C16        20.0650  -12.9590   20.3190 C.3       1 Q37     -0.020100
     32 H161       20.7650  -12.5210   21.0310 H         1 Q37      0.049600
     33 H162       20.6110  -13.3180   19.4470 H         1 Q37      0.049600
     34 C15        19.2490  -14.0930   20.9680 C.3       1 Q37     -0.024400
     35 H151       18.7620  -14.7250   20.2260 H         1 Q37      0.069200
     36 H152       19.8570  -14.7110   21.6280 H         1 Q37      0.069200
     37 C1         12.6320  -11.6150   21.5770 C.ar      1 Q37     -0.113200
     38 H1         12.6840  -12.4520   20.8970 H         1 Q37      0.137800
     39 C2         13.5190  -10.5390   21.4240 C.ar      1 Q37     -0.021500
     40 C3         14.5430  -10.5760   20.2920 C.3       1 Q37      0.003600
     41 H31        14.5140   -9.6400   19.7340 H         1 Q37      0.103000
     42 H32        14.3250  -11.4060   19.6200 H         1 Q37      0.103000
     43 N9         15.8610  -10.7560   20.8960 N.am      1 Q37     -0.446400
     44 H9         16.2450  -10.0450   21.5020 H         1 Q37      0.323700
     45 C18        13.4280   -9.4700   22.3150 C.ar      1 Q37     -0.208400
     46 H18        14.1040   -8.6350   22.2080 H         1 Q37      0.163000
     47 C19        12.4860   -9.4550   23.3390 C.ar      1 Q37      0.248100
     48 F7         12.4030   -8.4200   24.1970 F         1 Q37     -0.185300
     49 C20        11.6110  -10.5340   23.4800 C.ar      1 Q37     -0.134800
     50 H20        10.8760  -10.5340   24.2720 H         1 Q37      0.161600
     51 C21        11.6870  -11.6140   22.5950 C.ar      1 Q37     -0.221500
     52 H21        11.0100  -12.4480   22.7030 H         1 Q37      0.185200
@<TRIPOS>BOND
     1    1    2 1   
     2    1    3 1   
     3    1    4 1   
     4    1    5 1   
     5    5    6 1   
     6    5    7 1   
     7    5    9 1   
     8    7    8 2   
     9    7   23 am  
    10    9   10 1   
    11    9   11 1   
    12    9   12 1   
    13   12   13 ar  
    14   12   15 ar  
    15   13   14 1   
    16   13   17 ar  
    17   15   16 1   
    18   15   19 ar  
    19   17   18 1   
    20   17   21 ar  
    21   19   20 1   
    22   19   21 ar  
    23   21   22 1   
    24   23   24 1   
    25   23   34 1   
    26   24   25 1   
    27   24   26 1   
    28   24   28 1   
    29   26   27 2   
    30   26   43 am  
    31   28   29 1   
    32   28   30 1   
    33   28   31 1   
    34   31   32 1   
    35   31   33 1   
    36   31   34 1   
    37   34   35 1   
    38   34   36 1   
    39   37   38 1   
    40   37   39 ar  
    41   37   51 ar  
    42   39   40 1   
    43   39   45 ar  
    44   40   41 1   
    45   40   42 1   
    46   40   43 1   
    47   43   44 1   
    48   45   46 1   
    49   45   47 ar  
    50   47   48 1   
    51   47   49 ar  
    52   49   50 1   
    53   49   51 ar  
    54   51   52 1   
@<TRIPOS>SUBSTRUCTURE
     1 Q37         1 TEMP              0 ****  ****    0 ROOT
