@<TRIPOS>MOLECULE
51U_501
   55    57     1     0     0
SMALL
No Charge or Current Charge


@<TRIPOS>ATOM
      1 N1         16.0130  -15.5380   23.0710 N.4     501 51U     -0.200296
      2 C2         17.2490  -14.7450   23.1640 C.3     501 51U      0.080805
      3 C3         17.0420  -13.3530   22.6130 C.2     501 51U      0.374446
      4 O1         16.0810  -12.6940   22.9920 O.2     501 51U     -0.498466
      5 C1         17.7490  -14.6700   24.6200 C.3     501 51U     -0.121092
      6 C17        19.1850  -14.1520   24.6720 C.ar    501 51U      0.016616
      7 C18        20.2010  -14.8200   23.9830 C.ar    501 51U     -0.146465
      8 C23        19.4960  -13.0070   25.4070 C.ar    501 51U     -0.146465
      9 C19        21.5170  -14.3440   24.0300 C.ar    501 51U     -0.158330
     10 C22        20.8130  -12.5340   25.4540 C.ar    501 51U     -0.158330
     11 C20        21.8330  -13.2020   24.7660 C.ar    501 51U     -0.078588
     12 N2         17.9390  -12.9210   21.7700 N.am    501 51U     -0.167996
     13 C7         17.7310  -11.7510   20.9540 C.3     501 51U      0.005383
     14 C8         16.3270  -11.5810   20.4510 C.2     501 51U      0.587999
     15 O2         15.7970  -12.4350   19.7650 O.2     501 51U     -0.585745
     16 C6         18.7900  -11.7940   19.8340 C.3     501 51U     -0.056214
     17 C5         19.7500  -12.9320   20.2670 C.3     501 51U     -0.034068
     18 C4         18.8340  -13.8640   21.1050 C.3     501 51U     -0.024329
     19 N3         15.6440  -10.3760   20.8610 N.am    501 51U     -0.455269
     20 C9         14.3850  -10.1880   20.1890 C.3     501 51U     -0.086387
     21 C10        13.2690  -10.2630   21.2270 C.ar    501 51U      0.011982
     22 C11        13.1080   -9.2420   22.1710 C.ar    501 51U     -0.209336
     23 C12        12.0820   -9.3200   23.1190 C.ar    501 51U      0.073621
     24 C13        11.8900   -8.2190   24.1560 C.3     501 51U     -0.175876
     25 C14        11.2300  -10.4200   23.1090 C.ar    501 51U     -0.086709
     26 C15        11.3810  -11.4490   22.1700 C.ar    501 51U     -0.248954
     27 C16        12.4080  -11.3620   21.2280 C.ar    501 51U     -0.092077
     28 H1         16.1890  -16.4760   23.4020 H       501 51U      0.270296
     29 H2         15.7060  -15.5720   22.1090 H       501 51U      0.270296
     30 H3         15.2950  -15.1100   23.6380 H       501 51U      0.270296
     31 H4         18.0080  -15.2460   22.5630 H       501 51U      0.059357
     32 H5         17.7110  -15.6650   25.0630 H       501 51U      0.096204
     33 H6         17.1050  -13.9960   25.1850 H       501 51U      0.096204
     34 H7         19.9700  -15.7070   23.4120 H       501 51U      0.138494
     35 H8         18.7170  -12.4830   25.9420 H       501 51U      0.138494
     36 H9         22.2940  -14.8660   23.4920 H       501 51U      0.158821
     37 H10        21.0440  -11.6470   26.0250 H       501 51U      0.158821
     38 H11        22.8490  -12.8390   24.8050 H       501 51U      0.144570
     39 H12        17.8590  -10.8570   21.5640 H       501 51U      0.086854
     40 H13        19.3210  -10.8440   19.7660 H       501 51U      0.058351
     41 H14        18.3280  -12.0210   18.8730 H       501 51U      0.058351
     42 H15        20.5700  -12.5440   20.8700 H       501 51U      0.052684
     43 H16        20.1530  -13.4560   19.4000 H       501 51U      0.052684
     44 H17        18.2780  -14.5490   20.4640 H       501 51U      0.067763
     45 H18        19.4130  -14.4350   21.8310 H       501 51U      0.067763
     46 H19        16.0110   -9.7330   21.5470 H       501 51U      0.301134
     47 H20        14.2460  -10.9700   19.4420 H       501 51U      0.118639
     48 H21        14.3700   -9.2130   19.7020 H       501 51U      0.118639
     49 H22        13.7760   -8.3930   22.1680 H       501 51U      0.145293
     50 H23        12.6450   -7.4460   24.0090 H       501 51U      0.069195
     51 H24        11.9910   -8.6400   25.1560 H       501 51U      0.069195
     52 H25        10.8970   -7.7830   24.0440 H       501 51U      0.069195
     53 H26        10.4370  -10.4820   23.8390 H       501 51U      0.136419
     54 H27        10.7130  -12.2970   22.1750 H       501 51U      0.175735
     55 H28        12.5370  -12.1470   20.4980 H       501 51U      0.130391
@<TRIPOS>BOND
     1    1    2 1   
     2    1   28 1   
     3    1   29 1   
     4    1   30 1   
     5    2    3 1   
     6    2    5 1   
     7    2   31 1   
     8    3    4 2   
     9    3   12 am  
    10    5    6 1   
    11    5   32 1   
    12    5   33 1   
    13    6    7 ar  
    14    6    8 ar  
    15    7    9 ar  
    16    7   34 1   
    17    8   10 ar  
    18    8   35 1   
    19    9   11 ar  
    20    9   36 1   
    21   10   11 ar  
    22   10   37 1   
    23   11   38 1   
    24   12   13 1   
    25   12   18 1   
    26   13   14 1   
    27   13   16 1   
    28   13   39 1   
    29   14   15 2   
    30   14   19 am  
    31   16   17 1   
    32   16   40 1   
    33   16   41 1   
    34   17   18 1   
    35   17   42 1   
    36   17   43 1   
    37   18   44 1   
    38   18   45 1   
    39   19   20 1   
    40   19   46 1   
    41   20   21 1   
    42   20   47 1   
    43   20   48 1   
    44   21   22 ar  
    45   21   27 ar  
    46   22   23 ar  
    47   22   49 1   
    48   23   24 1   
    49   23   25 ar  
    50   24   50 1   
    51   24   51 1   
    52   24   52 1   
    53   25   26 ar  
    54   25   53 1   
    55   26   27 ar  
    56   26   54 1   
    57   27   55 1   
@<TRIPOS>SUBSTRUCTURE
     1 51U         1 TEMP              0 ****  ****    0 ROOT
