@<TRIPOS>MOLECULE
53U_2001
   52    54     1     0     0
SMALL
No Charge or Current Charge


@<TRIPOS>ATOM
      1 N1         16.3900  -15.7830   23.1600 N.4    2001 53U     -0.140369
      2 C2         17.6570  -15.0120   23.1460 C.3    2001 53U      0.155115
      3 C3         17.4360  -13.6310   22.5680 C.2    2001 53U      0.357913
      4 O1         16.5060  -12.9450   23.0320 O.2    2001 53U     -0.485456
      5 C1         18.1720  -14.9170   24.5950 C.3    2001 53U     -0.139677
      6 C16        19.5920  -14.3710   24.7440 C.ar   2001 53U      0.045997
      7 C17        20.6910  -14.9640   24.0890 C.ar   2001 53U     -0.141651
      8 C21        19.8220  -13.2490   25.5510 C.ar   2001 53U     -0.141651
      9 C18        21.9860  -14.4540   24.2350 C.ar   2001 53U     -0.171171
     10 C20        21.1010  -12.7410   25.6970 C.ar   2001 53U     -0.171171
     11 C19        22.1890  -13.3330   25.0460 C.ar   2001 53U     -0.072354
     12 N2         18.2450  -13.1710   21.5890 N.am   2001 53U     -0.172624
     13 C7         18.0280  -11.8220   21.0620 C.3    2001 53U      0.007177
     14 C8         16.6090  -11.7290   20.5280 C.2    2001 53U      0.469918
     15 O2         16.2150  -12.7280   19.9260 O.2    2001 53U     -0.523649
     16 C6         18.9440  -11.8950   19.8030 C.3    2001 53U     -0.082996
     17 C5         20.1040  -12.7670   20.3170 C.3    2001 53U     -0.012277
     18 C4         19.3760  -13.9390   21.0230 C.3    2001 53U     -0.030744
     19 N3         15.9710  -10.5760   20.7540 N.am   2001 53U     -0.459494
     20 C9         14.6590  -10.4300   20.1130 C.3    2001 53U     -0.082645
     21 C10        13.5670  -10.4920   21.1900 C.ar   2001 53U      0.010838
     22 C11        13.3860   -9.3970   22.0370 C.ar   2001 53U     -0.112700
     23 C12        12.4020   -9.4430   23.0150 C.ar   2001 53U     -0.169440
     24 C13        11.5890  -10.5670   23.1640 C.ar   2001 53U     -0.117929
     25 C14        11.7790  -11.6630   22.3090 C.ar   2001 53U     -0.169440
     26 C15        12.7700  -11.6130   21.3270 C.ar   2001 53U     -0.112700
     27 H1         16.0320  -15.8590   22.2190 H      2001 53U      0.238459
     28 H2         15.7130  -15.3080   23.7400 H      2001 53U      0.238459
     29 H3         16.5620  -16.7070   23.5300 H      2001 53U      0.238459
     30 H4         18.3930  -15.5140   22.5180 H      2001 53U      0.039821
     31 H5         18.1480  -15.9170   25.0280 H      2001 53U      0.087220
     32 H6         17.4990  -14.2640   25.1500 H      2001 53U      0.087220
     33 H7         20.5300  -15.8290   23.4620 H      2001 53U      0.134382
     34 H8         18.9960  -12.7770   26.0620 H      2001 53U      0.134382
     35 H9         22.8180  -14.9200   23.7280 H      2001 53U      0.161843
     36 H10        21.2620  -11.8750   26.3220 H      2001 53U      0.161843
     37 H11        23.1820  -12.9260   25.1690 H      2001 53U      0.144693
     38 H12        18.2040  -11.0150   21.7730 H      2001 53U      0.093061
     39 H13        19.2910  -10.9060   19.5050 H      2001 53U      0.068658
     40 H14        18.4320  -12.3670   18.9650 H      2001 53U      0.068658
     41 H15        20.7280  -12.2140   21.0190 H      2001 53U      0.049935
     42 H16        20.7180  -13.1280   19.4920 H      2001 53U      0.049935
     43 H17        19.0450  -14.7030   20.3190 H      2001 53U      0.068392
     44 H18        19.9900  -14.4000   21.7970 H      2001 53U      0.068392
     45 H19        16.3680   -9.8490   21.3310 H      2001 53U      0.342463
     46 H20        14.5110  -11.2370   19.3950 H      2001 53U      0.133022
     47 H21        14.6090   -9.4710   19.5970 H      2001 53U      0.133022
     48 H22        14.0070   -8.5200   21.9320 H      2001 53U      0.131291
     49 H23        12.2640   -8.5960   23.6710 H      2001 53U      0.154816
     50 H24        10.8250  -10.5930   23.9260 H      2001 53U      0.148648
     51 H25        11.1610  -12.5430   22.4100 H      2001 53U      0.154816
     52 H26        12.9150  -12.4570   20.6690 H      2001 53U      0.131291
@<TRIPOS>BOND
     1    1    2 1   
     2    1   27 1   
     3    1   28 1   
     4    1   29 1   
     5    2    3 1   
     6    2    5 1   
     7    2   30 1   
     8    3    4 2   
     9    3   12 am  
    10    5    6 1   
    11    5   31 1   
    12    5   32 1   
    13    6    7 ar  
    14    6    8 ar  
    15    7    9 ar  
    16    7   33 1   
    17    8   10 ar  
    18    8   34 1   
    19    9   11 ar  
    20    9   35 1   
    21   10   11 ar  
    22   10   36 1   
    23   11   37 1   
    24   12   13 1   
    25   12   18 1   
    26   13   14 1   
    27   13   16 1   
    28   13   38 1   
    29   14   15 2   
    30   14   19 am  
    31   16   17 1   
    32   16   39 1   
    33   16   40 1   
    34   17   18 1   
    35   17   41 1   
    36   17   42 1   
    37   18   43 1   
    38   18   44 1   
    39   19   20 1   
    40   19   45 1   
    41   20   21 1   
    42   20   46 1   
    43   20   47 1   
    44   21   22 ar  
    45   21   26 ar  
    46   22   23 ar  
    47   22   48 1   
    48   23   24 ar  
    49   23   49 1   
    50   24   25 ar  
    51   24   50 1   
    52   25   26 ar  
    53   25   51 1   
    54   26   52 1   
@<TRIPOS>SUBSTRUCTURE
     1 53U         1 TEMP              0 ****  ****    0 ROOT
