@<TRIPOS>MOLECULE
2ZFP.H
   45    46     1     0     0
SMALL
No Charge or Current Charge


@<TRIPOS>ATOM
      1 N          16.5370  -15.8360   23.3100 N.4       1 Q19     -0.084193
      2 H1         16.1040  -16.0340   22.4190 H         1 Q19      0.244327
      3 H2         15.8850  -15.3370   23.8980 H         1 Q19      0.244327
      4 H3         16.7980  -16.7030   23.7580 H         1 Q19      0.244327
      5 C15        17.7460  -15.0060   23.0980 C.3       1 Q19     -0.001700
      6 H4         18.4320  -15.5380   22.4390 H         1 Q19      0.055194
      7 C14        17.3840  -13.6710   22.4600 C.2       1 Q19      0.188447
      8 O32        16.3750  -13.1400   22.9140 O.2       1 Q19     -0.437300
      9 C1         18.3830  -14.7220   24.4870 C.3       1 Q19      0.044190
     10 H5         18.4180  -15.6450   25.0660 H         1 Q19      0.048279
     11 H6         17.7830  -13.9830   25.0180 H         1 Q19      0.048279
     12 C17        19.8130  -14.1810   24.2950 C.3       1 Q19     -0.102866
     13 H7         20.4130  -14.9200   23.7640 H         1 Q19      0.050933
     14 H8         20.2600  -13.9820   25.2690 H         1 Q19      0.050933
     15 H9         19.7780  -13.2580   23.7160 H         1 Q19      0.050933
     16 N1         18.1120  -13.1040   21.4600 N.am      1 Q19      0.034769
     17 C12        17.7820  -11.7870   20.9290 C.3       1 Q19      0.021727
     18 H10        17.9310  -10.9590   21.6220 H         1 Q19      0.100263
     19 C7         16.3290  -11.6340   20.5720 C.2       1 Q19      0.349489
     20 O22        15.7310  -12.5940   20.1030 O.2       1 Q19     -0.507332
     21 C2         18.7040  -11.8010   19.6800 C.3       1 Q19      0.061347
     22 H11        18.8940  -10.7930   19.3120 H         1 Q19      0.022758
     23 H12        18.2820  -12.4070   18.8780 H         1 Q19      0.022758
     24 C3         19.9930  -12.4470   20.2640 C.3       1 Q19     -0.090207
     25 H13        20.5240  -11.7530   20.9160 H         1 Q19      0.062493
     26 H14        20.6610  -12.7840   19.4720 H         1 Q19      0.062493
     27 C4         19.4170  -13.6460   21.0650 C.3       1 Q19     -0.060537
     28 H15        19.3120  -14.5330   20.4410 H         1 Q19      0.066066
     29 H16        20.0330  -13.8830   21.9320 H         1 Q19      0.066066
     30 N23        15.6920  -10.4550   20.8000 N.am      1 Q19     -0.159550
     31 H17        16.1590   -9.6820   21.2520 H         1 Q19      0.145149
     32 C24        14.3020  -10.3570   20.3610 C.3       1 Q19     -0.030826
     33 H18        14.0800  -11.2080   19.7170 H         1 Q19      0.097405
     34 H19        14.1800   -9.4330   19.7960 H         1 Q19      0.097405
     35 C25        13.3070  -10.3530   21.5240 C.ar      1 Q19      0.007358
     36 C26        12.4580  -11.4560   21.6750 C.ar      1 Q19     -0.146085
     37 H20        12.5210  -12.2770   20.9770 H         1 Q19      0.161904
     38 C27        11.5310  -11.5060   22.7180 C.ar      1 Q19     -0.180360
     39 H21        10.8820  -12.3630   22.8240 H         1 Q19      0.175890
     40 C28        11.4440  -10.4450   23.6260 C.ar      1 Q19     -0.079663
     41 H22        10.7270  -10.4830   24.4330 H         1 Q19      0.162274
     42 C29        12.2860   -9.3320   23.4900 C.ar      1 Q19     -0.008761
     43 C30        13.2110   -9.2950   22.4380 C.ar      1 Q19     -0.037243
     44 H23        13.8600   -8.4380   22.3300 H         1 Q19      0.080845
     45 Cl21       12.1580   -8.0080   24.6450 Cl        1 Q19     -0.142005
@<TRIPOS>BOND
     1    1    2 1   
     2    1    3 1   
     3    1    4 1   
     4    1    5 1   
     5    5    6 1   
     6    5    7 1   
     7    5    9 1   
     8    7    8 2   
     9    7   16 am  
    10    9   10 1   
    11    9   11 1   
    12    9   12 1   
    13   12   13 1   
    14   12   14 1   
    15   12   15 1   
    16   16   17 1   
    17   16   27 1   
    18   17   18 1   
    19   17   19 1   
    20   17   21 1   
    21   19   20 2   
    22   19   30 am  
    23   21   22 1   
    24   21   23 1   
    25   21   24 1   
    26   24   25 1   
    27   24   26 1   
    28   24   27 1   
    29   27   28 1   
    30   27   29 1   
    31   30   31 1   
    32   30   32 1   
    33   32   33 1   
    34   32   34 1   
    35   32   35 1   
    36   35   36 ar  
    37   35   43 ar  
    38   36   37 1   
    39   36   38 ar  
    40   38   39 1   
    41   38   40 ar  
    42   40   41 1   
    43   40   42 ar  
    44   42   43 ar  
    45   42   45 1   
    46   43   44 1   
@<TRIPOS>SUBSTRUCTURE
     1 Q19         1 TEMP              0 ****  ****    0 ROOT
