@<TRIPOS>MOLECULE
2ZGX.H
   51    52     1     0     0
SMALL
No Charge or Current Charge


@<TRIPOS>ATOM
      1 N13        16.0930  -15.7440   23.0790 N.4       1 Q29     -0.389875
      2 H133       15.8540  -15.8740   22.1060 H         1 Q29      0.331349
      3 H131       15.4010  -15.1550   23.5200 H         1 Q29      0.331349
      4 H132       16.1160  -16.6410   23.5430 H         1 Q29      0.331349
      5 C5         17.4220  -15.1030   23.1790 C.3       1 Q29      0.052503
      6 H5         18.1920  -15.7170   22.7110 H         1 Q29      0.094574
      7 C14        17.4360  -13.7490   22.4880 C.2       1 Q29      0.452478
      8 O32        16.4680  -13.0330   22.7690 O.2       1 Q29     -0.530285
      9 C33        17.6350  -14.8790   24.7110 C.3       1 Q29     -0.085270
     10 H331       17.3750  -15.8250   25.1860 H         1 Q29      0.077854
     11 H332       16.9130  -14.1160   25.0010 H         1 Q29      0.077854
     12 C48        18.9730  -14.4490   25.3430 C.3       1 Q29     -0.058592
     13 H481       19.7450  -15.1760   25.0900 H         1 Q29      0.045970
     14 H482       18.8630  -14.3980   26.4260 H         1 Q29      0.045970
     15 H483       19.2570  -13.4690   24.9600 H         1 Q29      0.045970
     16 N1         18.4130  -13.3300   21.6440 N.am      1 Q29     -0.172494
     17 C1         18.3270  -12.0220   21.0170 C.3       1 Q29     -0.014562
     18 H1         18.3850  -11.1890   21.7180 H         1 Q29      0.096306
     19 C7         17.0180  -11.9110   20.2720 C.2       1 Q29      0.502678
     20 O22        16.6340  -12.8750   19.6440 O.2       1 Q29     -0.508571
     21 C2         19.4930  -12.0770   19.9820 C.3       1 Q29     -0.093668
     22 H21        19.9390  -11.0950   19.8280 H         1 Q29      0.073074
     23 H22        19.1610  -12.4790   19.0250 H         1 Q29      0.073074
     24 C3         20.4710  -13.0420   20.6980 C.3       1 Q29     -0.009458
     25 H31        20.9690  -12.5500   21.5340 H         1 Q29      0.057209
     26 H32        21.2190  -13.4300   20.0060 H         1 Q29      0.057209
     27 C4         19.5280  -14.1680   21.1920 C.3       1 Q29     -0.034058
     28 H41        19.2360  -14.8420   20.3870 H         1 Q29      0.074159
     29 H42        19.9670  -14.7440   22.0070 H         1 Q29      0.074159
     30 N23        16.3710  -10.7240   20.3370 N.am      1 Q29     -0.500175
     31 H23        16.7650   -9.9340   20.8280 H         1 Q29      0.318743
     32 C24        15.0790  -10.6370   19.6650 C.3       1 Q29      0.043253
     33 H241       14.9440  -11.4930   19.0040 H         1 Q29      0.099690
     34 H242       15.0220   -9.7160   19.0840 H         1 Q29      0.099690
     35 C25        13.9920  -10.6390   20.7580 C.ar      1 Q29      0.071283
     36 C30        13.5860  -11.8300   21.3540 C.ar      1 Q29     -0.114582
     37 H30        14.0410  -12.7590   21.0450 H         1 Q29      0.150951
     38 C29        12.6060  -11.8450   22.3400 C.ar      1 Q29     -0.141069
     39 H29        12.3050  -12.7800   22.7890 H         1 Q29      0.159961
     40 C28        12.0120  -10.6500   22.7480 C.ar      1 Q29     -0.100631
     41 C21        10.8810  -10.6450   23.8790 C.2       1 Q29      0.675313
     42 N46        10.2060  -11.7630   24.0990 N.3       1 Q29     -0.776234
     43 H461        9.4860  -11.7870   24.8070 H         1 Q29      0.434131
     44 H462       10.4110  -12.5910   23.5580 H         1 Q29      0.434131
     45 N47        10.6480   -9.5500   24.5560 N.3       1 Q29     -0.776234
     46 H472       11.1810   -8.7140   24.3630 H         1 Q29      0.434131
     47 H471        9.9350   -9.5410   25.2710 H         1 Q29      0.434131
     48 C27        12.4210   -9.4500   22.1480 C.ar      1 Q29     -0.141069
     49 H27        11.9680   -8.5190   22.4560 H         1 Q29      0.159961
     50 C26        13.4040   -9.4430   21.1600 C.ar      1 Q29     -0.114582
     51 H26        13.7090   -8.5110   20.7070 H         1 Q29      0.150951
@<TRIPOS>BOND
     1    1    2 1   
     2    1    3 1   
     3    1    4 1   
     4    1    5 1   
     5    5    6 1   
     6    5    7 1   
     7    5    9 1   
     8    7    8 2   
     9    7   16 am  
    10    9   10 1   
    11    9   11 1   
    12    9   12 1   
    13   12   13 1   
    14   12   14 1   
    15   12   15 1   
    16   16   17 1   
    17   16   27 1   
    18   17   18 1   
    19   17   19 1   
    20   17   21 1   
    21   19   20 2   
    22   19   30 am  
    23   21   22 1   
    24   21   23 1   
    25   21   24 1   
    26   24   25 1   
    27   24   26 1   
    28   24   27 1   
    29   27   28 1   
    30   27   29 1   
    31   30   31 1   
    32   30   32 1   
    33   32   33 1   
    34   32   34 1   
    35   32   35 1   
    36   35   36 ar  
    37   35   50 ar  
    38   36   37 1   
    39   36   38 ar  
    40   38   39 1   
    41   38   40 ar  
    42   40   41 1   
    43   40   48 ar  
    44   41   42 2   
    45   41   45 1   
    46   42   43 1   
    47   42   44 1   
    48   45   46 1   
    49   45   47 1   
    50   48   49 1   
    51   48   50 ar  
    52   50   51 1   
@<TRIPOS>SUBSTRUCTURE
     1 Q29         1 TEMP              0 ****  ****    0 ROOT
