@<TRIPOS>MOLECULE
2ZO3.H
   68    71     1     0     0
SMALL
No Charge or Current Charge


@<TRIPOS>ATOM
      1 C37        18.5960  -17.5430   24.9920 C.ar      1 Q33     -0.082655
      2 H1         18.8460  -17.5440   23.9410 H         1 Q33      0.105733
      3 C26        18.6290  -18.7390   25.7250 C.ar      1 Q33     -0.197628
      4 H2         18.9040  -19.6650   25.2420 H         1 Q33      0.172015
      5 C25        18.3040  -18.7250   27.0810 C.ar      1 Q33     -0.076346
      6 H3         18.3300  -19.6470   27.6430 H         1 Q33      0.161728
      7 C34        17.9470  -17.5430   27.7200 C.ar      1 Q33     -0.197628
      8 H4         17.6970  -17.5450   28.7710 H         1 Q33      0.172015
      9 C23        17.9150  -16.3500   26.9880 C.ar      1 Q33     -0.082655
     10 H5         17.6400  -15.4270   27.4760 H         1 Q33      0.105733
     11 C7         18.2380  -16.3490   25.6270 C.ar      1 Q33      0.047710
     12 C8         18.2260  -15.0720   24.7510 C.3       1 Q33     -0.246589
     13 H6         17.4610  -14.4250   25.1800 H         1 Q33      0.122114
     14 C9         17.7610  -15.2520   23.2790 C.3       1 Q33     -0.010985
     15 H7         18.4740  -15.8920   22.7590 H         1 Q33      0.074354
     16 C10        17.7230  -13.8800   22.6210 C.2       1 Q33      0.701047
     17 O32        16.8080  -13.1400   22.9930 O.2       1 Q33     -0.556006
     18 N2         16.4490  -15.9680   23.1650 N.4       1 Q33     -0.142067
     19 H8         15.7310  -15.4300   23.6290 H         1 Q33      0.259129
     20 H9         16.5230  -16.8770   23.5990 H         1 Q33      0.259129
     21 H10        16.2100  -16.0790   22.1900 H         1 Q33      0.259129
     22 C1         19.6290  -14.4240   24.8070 C.ar      1 Q33      0.047710
     23 C6         20.7220  -14.9670   24.1220 C.ar      1 Q33     -0.082655
     24 H11        20.6050  -15.8640   23.5320 H         1 Q33      0.105733
     25 C5         21.9730  -14.3330   24.2100 C.ar      1 Q33     -0.197628
     26 H12        22.8150  -14.7530   23.6790 H         1 Q33      0.172015
     27 C4         22.1540  -13.1820   24.9610 C.ar      1 Q33     -0.076346
     28 H13        23.1250  -12.7120   25.0160 H         1 Q33      0.161728
     29 C3         21.0620  -12.6360   25.6470 C.ar      1 Q33     -0.197628
     30 H14        21.1800  -11.7390   26.2370 H         1 Q33      0.172015
     31 C2         19.8190  -13.2660   25.5580 C.ar      1 Q33     -0.082655
     32 H15        18.9790  -12.8420   26.0880 H         1 Q33      0.105733
     33 N1         18.6110  -13.4510   21.6830 N.am      1 Q33     -0.478787
     34 C14        18.4760  -12.1080   21.1290 C.3       1 Q33      0.104024
     35 H16        18.5710  -11.3020   21.8570 H         1 Q33      0.081485
     36 C15        17.1200  -12.0380   20.4430 C.2       1 Q33      0.391993
     37 O22        16.7520  -13.0260   19.8230 O.2       1 Q33     -0.474574
     38 C13        19.5610  -12.1080   20.0100 C.3       1 Q33      0.006549
     39 H17        20.0850  -11.1530   19.9680 H         1 Q33      0.040081
     40 H18        19.1240  -12.3260   19.0360 H         1 Q33      0.040081
     41 C12        20.5050  -13.2450   20.4680 C.3       1 Q33     -0.034881
     42 H19        21.1420  -12.9220   21.2910 H         1 Q33      0.054567
     43 H20        21.1270  -13.5980   19.6450 H         1 Q33      0.054567
     44 C11        19.5020  -14.3450   20.9290 C.3       1 Q33      0.047953
     45 H21        18.9990  -14.8310   20.0930 H         1 Q33      0.076920
     46 H22        19.9700  -15.1010   21.5600 H         1 Q33      0.076920
     47 N23        16.4550  -10.8700   20.5460 N.am      1 Q33     -0.400556
     48 H23        16.8020  -10.0950   21.0930 H         1 Q33      0.286717
     49 C16        15.1690  -10.8060   19.7930 C.3       1 Q33     -0.023566
     50 H24        15.0300  -11.7150   19.2070 H         1 Q33      0.126245
     51 H25        15.1640   -9.9420   19.1290 H         1 Q33      0.126245
     52 C17        14.0590  -10.6760   20.8370 C.ar      1 Q33     -0.007549
     53 C22        13.6160  -11.8180   21.4860 C.ar      1 Q33     -0.067514
     54 H26        14.0690  -12.7660   21.2340 H         1 Q33      0.144872
     55 C21        12.6140  -11.7930   22.4460 C.ar      1 Q33     -0.145805
     56 H27        12.2980  -12.7070   22.9280 H         1 Q33      0.155841
     57 C24        12.0150  -10.5710   22.7850 C.ar      1 Q33     -0.114328
     58 C27        10.9220  -10.5600   23.8390 C.2       1 Q33      0.686782
     59 N35        10.2390  -11.6890   24.1310 N.3       1 Q33     -0.769134
     60 H28         9.5130  -11.6730   24.8330 H         1 Q33      0.430323
     61 H29        10.4540  -12.5490   23.6470 H         1 Q33      0.430323
     62 N34        10.6440   -9.4830   24.4530 N.3       1 Q33     -0.769134
     63 H30         9.9170   -9.4750   25.1540 H         1 Q33      0.430323
     64 H31        11.1500   -8.6350   24.2400 H         1 Q33      0.430323
     65 C19        12.4490   -9.4150   22.1440 C.ar      1 Q33     -0.145805
     66 H32        11.9960   -8.4680   22.3980 H         1 Q33      0.155841
     67 C18        13.4640   -9.4540   21.1730 C.ar      1 Q33     -0.067514
     68 H33        13.7840   -8.5440   20.6870 H         1 Q33      0.144872
@<TRIPOS>BOND
     1    1    2 1   
     2    1    3 ar  
     3    1   11 ar  
     4    3    4 1   
     5    3    5 ar  
     6    5    6 1   
     7    5    7 ar  
     8    7    8 1   
     9    7    9 ar  
    10    9   10 1   
    11    9   11 ar  
    12   11   12 1   
    13   12   13 1   
    14   12   14 1   
    15   12   22 1   
    16   14   15 1   
    17   14   16 1   
    18   14   18 1   
    19   16   17 2   
    20   16   33 am  
    21   18   19 1   
    22   18   20 1   
    23   18   21 1   
    24   22   23 ar  
    25   22   31 ar  
    26   23   24 1   
    27   23   25 ar  
    28   25   26 1   
    29   25   27 ar  
    30   27   28 1   
    31   27   29 ar  
    32   29   30 1   
    33   29   31 ar  
    34   31   32 1   
    35   33   34 1   
    36   33   44 1   
    37   34   35 1   
    38   34   36 1   
    39   34   38 1   
    40   36   37 2   
    41   36   47 am  
    42   38   39 1   
    43   38   40 1   
    44   38   41 1   
    45   41   42 1   
    46   41   43 1   
    47   41   44 1   
    48   44   45 1   
    49   44   46 1   
    50   47   48 1   
    51   47   49 1   
    52   49   50 1   
    53   49   51 1   
    54   49   52 1   
    55   52   53 ar  
    56   52   67 ar  
    57   53   54 1   
    58   53   55 ar  
    59   55   56 1   
    60   55   57 ar  
    61   57   58 1   
    62   57   65 ar  
    63   58   59 2   
    64   58   62 1   
    65   59   60 1   
    66   59   61 1   
    67   62   63 1   
    68   62   64 1   
    69   65   66 1   
    70   65   67 ar  
    71   67   68 1   
@<TRIPOS>SUBSTRUCTURE
     1 Q33         1 TEMP              0 ****  ****    0 ROOT
