@<TRIPOS>MOLECULE
3BIU.H
   58    60     1     0     0
SMALL
No Charge or Current Charge


@<TRIPOS>ATOM
      1 C14        18.5760  -13.9820   22.1580 C.2       1 Q10      0.409511
      2 O32        17.6140  -13.5260   22.7700 O.2       1 Q10     -0.500671
      3 C15        19.4370  -15.0990   22.7050 C.3       1 Q10     -0.228693
      4 H1         20.4920  -14.8410   22.6150 H         1 Q10      0.135053
      5 H2         19.2420  -16.0250   22.1640 H         1 Q10      0.135053
      6 N16        19.0730  -15.2460   24.1000 N.4       1 Q10     -0.015567
      7 H3         19.4130  -16.1070   24.5030 H         1 Q10      0.257407
      8 H4         18.0780  -15.1720   24.2530 H         1 Q10      0.257407
      9 C17        19.8130  -14.0620   24.5770 C.3       1 Q10     -0.091858
     10 H5         19.2940  -13.2450   24.0750 H         1 Q10      0.118561
     11 C21        21.3220  -14.1200   24.2400 C.3       1 Q10     -0.009270
     12 H6         21.5010  -13.9190   23.1840 H         1 Q10      0.049747
     13 H7         21.7510  -15.0870   24.5030 H         1 Q10      0.049747
     14 C20        21.8860  -12.9930   25.1310 C.3       1 Q10      0.047691
     15 H8         21.6890  -12.0150   24.6910 H         1 Q10      0.004487
     16 H9         22.9590  -13.1150   25.2780 H         1 Q10      0.004487
     17 C19        21.1260  -13.1580   26.4660 C.3       1 Q10      0.047691
     18 H10        20.9080  -12.1820   26.8990 H         1 Q10      0.004487
     19 H11        21.7200  -13.7420   27.1680 H         1 Q10      0.004487
     20 C18        19.8060  -13.9030   26.1290 C.3       1 Q10     -0.009270
     21 H12        19.7830  -14.8790   26.6130 H         1 Q10      0.049747
     22 H13        18.9440  -13.3180   26.4500 H         1 Q10      0.049747
     23 N1         19.1740  -13.1100   21.3090 N.am      1 Q10     -0.084045
     24 C2         18.6150  -11.8260   20.8780 C.3       1 Q10     -0.099280
     25 H14        18.5490  -11.1190   21.7050 H         1 Q10      0.084870
     26 C7         17.1980  -11.9890   20.3490 C.2       1 Q10      0.573005
     27 O22        16.7870  -13.1260   20.1550 O.2       1 Q10     -0.535806
     28 C3         19.5560  -11.3370   19.7650 C.3       1 Q10      0.015173
     29 H15        20.0180  -10.3930   20.0530 H         1 Q10      0.030080
     30 H16        19.0010  -11.2020   18.8370 H         1 Q10      0.030080
     31 C4         20.6340  -12.4200   19.5840 C.3       1 Q10     -0.020873
     32 H17        21.6090  -11.9790   19.3770 H         1 Q10      0.045566
     33 H18        20.3710  -13.1130   18.7850 H         1 Q10      0.045566
     34 C5         20.6120  -13.1200   20.9690 C.3       1 Q10      0.049856
     35 H19        20.9940  -14.1390   20.9020 H         1 Q10      0.052941
     36 H20        21.1940  -12.5620   21.7020 H         1 Q10      0.052941
     37 N23        16.3320  -10.9540   20.4820 N.am      1 Q10     -0.492329
     38 H21        16.5940  -10.1630   21.0520 H         1 Q10      0.323672
     39 C24        15.0280  -10.9560   19.8190 C.3       1 Q10      0.013828
     40 H22        14.9180  -11.8590   19.2190 H         1 Q10      0.101309
     41 H23        14.9360  -10.0800   19.1770 H         1 Q10      0.101309
     42 C25        13.9650  -10.9200   20.8970 C.ar      1 Q10      0.058184
     43 C30        13.4500  -12.0900   21.4180 C.ar      1 Q10     -0.123251
     44 H24        13.8080  -13.0420   21.0550 H         1 Q10      0.167787
     45 C29        12.4790  -12.0520   22.4010 C.ar      1 Q10     -0.140410
     46 H25        12.0830  -12.9730   22.8020 H         1 Q10      0.156674
     47 C28        12.0100  -10.8290   22.8760 C.ar      1 Q10     -0.096185
     48 C31        10.9010  -10.7760   23.8600 C.2       1 Q10      0.665719
     49 N48        10.4620   -9.4590   24.4440 N.3       1 Q10     -0.763210
     50 H48        10.0370   -9.4290   25.3600 H         1 Q10      0.429815
     51 H481       10.5930   -8.6050   23.9200 H         1 Q10      0.429815
     52 C27        12.5350   -9.6530   22.3420 C.ar      1 Q10     -0.140410
     53 H33        12.1810   -8.6960   22.6970 H         1 Q10      0.156674
     54 C26        13.5010   -9.7060   21.3660 C.ar      1 Q10     -0.123251
     55 H34        13.9020   -8.7890   20.9610 H         1 Q10      0.167787
     56 N49        10.5160  -11.8510   24.9990 N.3       1 Q10     -0.763210
     57 H492       10.7100  -12.8320   24.8540 H         1 Q10      0.429815
     58 H491       10.0810  -11.5440   25.8570 H         1 Q10      0.429815
@<TRIPOS>BOND
     1    1    2 2   
     2    1    3 1   
     3    1   23 am  
     4    3    4 1   
     5    3    5 1   
     6    3    6 1   
     7    6    7 1   
     8    6    8 1   
     9    6    9 1   
    10    9   10 1   
    11    9   11 1   
    12    9   20 1   
    13   11   12 1   
    14   11   13 1   
    15   11   14 1   
    16   14   15 1   
    17   14   16 1   
    18   14   17 1   
    19   17   18 1   
    20   17   19 1   
    21   17   20 1   
    22   20   21 1   
    23   20   22 1   
    24   23   24 1   
    25   23   34 1   
    26   24   25 1   
    27   24   26 1   
    28   24   28 1   
    29   26   27 2   
    30   26   37 am  
    31   28   29 1   
    32   28   30 1   
    33   28   31 1   
    34   31   32 1   
    35   31   33 1   
    36   31   34 1   
    37   34   35 1   
    38   34   36 1   
    39   37   38 1   
    40   37   39 1   
    41   39   40 1   
    42   39   41 1   
    43   39   42 1   
    44   42   43 ar  
    45   42   54 ar  
    46   43   44 1   
    47   43   45 ar  
    48   45   46 1   
    49   45   47 ar  
    50   47   48 1   
    51   47   52 ar  
    52   48   49 2   
    53   48   56 1   
    54   49   50 1   
    55   49   51 1   
    56   52   53 1   
    57   52   54 ar  
    58   54   55 1   
    59   56   57 1   
    60   56   58 1   
@<TRIPOS>SUBSTRUCTURE
     1 Q10         1 TEMP              0 ****  ****    0 ROOT
