@<TRIPOS>MOLECULE
3BIV.H
   61    63     1     0     0
SMALL
No Charge or Current Charge


@<TRIPOS>ATOM
      1 C1         18.3580  -14.0650   22.3830 C.2       1 Q11      0.412730
      2 O2         17.4200  -13.6580   23.0590 O.2       1 Q11     -0.509379
      3 C3         18.8250  -15.4670   22.6700 C.3       1 Q11     -0.040549
      4 H1         18.1390  -16.1780   22.2020 H         1 Q11      0.083436
      5 N4         18.6670  -15.6250   24.1600 N.4       1 Q11     -0.049489
      6 H3         18.6430  -16.6220   24.4040 H         1 Q11      0.250045
      7 H2         17.7260  -15.2300   24.3630 H         1 Q11      0.250045
      8 H4         19.8530  -15.7020   22.3980 H         1 Q11      0.083436
      9 N5         18.9960  -13.2180   21.5400 N.am      1 Q11     -0.121411
     10 C6         18.5010  -11.8960   21.1470 C.3       1 Q11      0.001609
     11 H5         18.4780  -11.2190   22.0010 H         1 Q11      0.054417
     12 C7         17.0940  -12.0320   20.5900 C.2       1 Q11      0.525437
     13 O8         16.8770  -12.9430   19.8050 O.2       1 Q11     -0.512409
     14 C9         19.4420  -11.3560   20.0520 C.3       1 Q11     -0.032274
     15 H6         18.8720  -10.9140   19.2350 H         1 Q11      0.045665
     16 H7         20.1270  -10.6130   20.4610 H         1 Q11      0.045665
     17 C10        20.2140  -12.6100   19.5700 C.3       1 Q11     -0.033863
     18 H8         21.2100  -12.3500   19.2110 H         1 Q11      0.058184
     19 H9         19.6700  -13.1340   18.7840 H         1 Q11      0.058184
     20 C11        20.2830  -13.4530   20.8690 C.3       1 Q11     -0.015520
     21 H10        21.1100  -13.1220   21.4980 H         1 Q11      0.075194
     22 H11        20.4060  -14.5100   20.6340 H         1 Q11      0.075194
     23 N12        16.3200  -10.9240   20.5610 N.am      1 Q11     -0.478187
     24 H12        16.6350  -10.0730   21.0050 H         1 Q11      0.296806
     25 C13        15.0280  -10.9630   19.8860 C.3       1 Q11      0.039928
     26 H13        14.9320  -10.1150   19.2080 H         1 Q11      0.093897
     27 H14        14.9240  -11.8910   19.3240 H         1 Q11      0.093897
     28 C14        13.9800  -10.8880   20.9650 C.ar      1 Q11      0.057198
     29 C15        13.4980   -9.6680   21.3930 C.ar      1 Q11     -0.107436
     30 H15        13.8900   -8.7540   20.9730 H         1 Q11      0.151859
     31 C16        12.5130   -9.6190   22.3600 C.ar      1 Q11     -0.139108
     32 H16        12.1340   -8.6660   22.6970 H         1 Q11      0.159903
     33 C17        12.0100  -10.7990   22.8990 C.ar      1 Q11     -0.118300
     34 C18        10.9560  -10.7870   23.9380 C.2       1 Q11      0.690942
     35 N19        10.3140  -11.8540   24.3320 N.3       1 Q11     -0.776173
     36 H17         9.6040  -11.7810   25.0470 H         1 Q11      0.432909
     37 H18        10.5280  -12.7520   23.9220 H         1 Q11      0.432909
     38 N20        10.5620   -9.5130   24.6090 N.3       1 Q11     -0.776173
     39 H20        11.0160   -8.6470   24.3550 H         1 Q11      0.432909
     40 H19         9.8410   -9.5170   25.3170 H         1 Q11      0.432909
     41 C21        12.5060  -12.0280   22.4610 C.ar      1 Q11     -0.139108
     42 H21        12.1220  -12.9470   22.8780 H         1 Q11      0.159903
     43 C22        13.4860  -12.0640   21.4960 C.ar      1 Q11     -0.107436
     44 H22        13.8700  -13.0130   21.1530 H         1 Q11      0.151859
     45 C23        22.1240  -13.8070   26.0880 C.3       1 Q11      0.028878
     46 H23        22.2190  -13.2120   26.9920 H         1 Q11      0.034978
     47 H24        23.1240  -14.0250   25.7050 H         1 Q11      0.034978
     48 C24        21.4020  -13.0090   25.0740 C.3       1 Q11     -0.022203
     49 H25        22.1610  -12.7130   24.3520 H         1 Q11      0.013273
     50 H26        20.9630  -12.1260   25.5500 H         1 Q11      0.013273
     51 C25        20.3740  -13.7170   24.2690 C.3       1 Q11     -0.010541
     52 H27        20.8930  -14.1170   23.3960 H         1 Q11      0.055237
     53 H28        19.6670  -12.9440   23.9710 H         1 Q11      0.055237
     54 C26        19.6580  -14.8640   25.0010 C.3       1 Q11     -0.106799
     55 H29        19.0710  -14.4670   25.8390 H         1 Q11      0.109163
     56 C27        20.6980  -15.8470   25.5010 C.3       1 Q11     -0.010541
     57 H30        21.3390  -16.2050   24.6870 H         1 Q11      0.055237
     58 H31        20.2280  -16.7260   25.9590 H         1 Q11      0.055237
     59 C28        21.5090  -15.1200   26.5420 C.3       1 Q11     -0.022203
     60 H32        22.2910  -15.7770   26.9370 H         1 Q11      0.013273
     61 H33        20.8210  -14.8790   27.3580 H         1 Q11      0.013273
@<TRIPOS>BOND
     1    1    2 2   
     2    1    3 1   
     3    1    9 am  
     4    3    4 1   
     5    3    5 1   
     6    3    8 1   
     7    5    6 1   
     8    5    7 1   
     9    5   54 1   
    10    9   10 1   
    11    9   20 1   
    12   10   11 1   
    13   10   12 1   
    14   10   14 1   
    15   12   13 2   
    16   12   23 am  
    17   14   15 1   
    18   14   16 1   
    19   14   17 1   
    20   17   18 1   
    21   17   19 1   
    22   17   20 1   
    23   20   21 1   
    24   20   22 1   
    25   23   24 1   
    26   23   25 1   
    27   25   26 1   
    28   25   27 1   
    29   25   28 1   
    30   28   29 ar  
    31   28   43 ar  
    32   29   30 1   
    33   29   31 ar  
    34   31   32 1   
    35   31   33 ar  
    36   33   34 1   
    37   33   41 ar  
    38   34   35 2   
    39   34   38 1   
    40   35   36 1   
    41   35   37 1   
    42   38   39 1   
    43   38   40 1   
    44   41   42 1   
    45   41   43 ar  
    46   43   44 1   
    47   45   46 1   
    48   45   47 1   
    49   45   48 1   
    50   45   59 1   
    51   48   49 1   
    52   48   50 1   
    53   48   51 1   
    54   51   52 1   
    55   51   53 1   
    56   51   54 1   
    57   54   55 1   
    58   54   56 1   
    59   56   57 1   
    60   56   58 1   
    61   56   59 1   
    62   59   60 1   
    63   59   61 1   
@<TRIPOS>SUBSTRUCTURE
     1 Q11         1 TEMP              0 ****  ****    0 ROOT
