@<TRIPOS>MOLECULE
3DHK.H
   62    65     1     0     0
SMALL
No Charge or Current Charge


@<TRIPOS>ATOM
      1 C1         19.3460  -14.2430   24.8680 C.ar      1 Q23      0.073455
      2 C2         19.6330  -13.1540   25.6850 C.ar      1 Q23     -0.060811
      3 H1         18.8470  -12.6920   26.2640 H         1 Q23      0.109547
      4 C3         20.9350  -12.6580   25.7570 C.ar      1 Q23     -0.213353
      5 H2         21.1520  -11.8120   26.3920 H         1 Q23      0.173132
      6 C4         21.9630  -13.2490   25.0110 C.ar      1 Q23     -0.078740
      7 H3         22.9680  -12.8580   25.0720 H         1 Q23      0.158108
      8 C5         21.6890  -14.3410   24.1900 C.ar      1 Q23     -0.213353
      9 H4         22.4780  -14.8020   23.6140 H         1 Q23      0.173132
     10 C6         20.3820  -14.8350   24.1190 C.ar      1 Q23     -0.060811
     11 H5         20.1650  -15.6800   23.4830 H         1 Q23      0.109547
     12 C7         17.8330  -16.0360   25.6990 C.ar      1 Q23      0.073455
     13 C8         17.9070  -14.7760   24.7980 C.3       1 Q23     -0.329171
     14 H6         17.1980  -14.0430   25.1840 H         1 Q23      0.218894
     15 C9         17.4210  -14.9820   23.3300 C.3       1 Q23     -0.385517
     16 H7         18.1560  -15.5270   22.7370 H         1 Q23      0.191900
     17 N2         16.2050  -15.8320   23.3000 N.4       1 Q23      0.035846
     18 H10        15.9010  -15.9510   22.3440 H         1 Q23      0.210099
     19 H8         15.4710  -15.3890   23.8340 H         1 Q23      0.210099
     20 H9         16.4150  -16.7350   23.7010 H         1 Q23      0.210099
     21 C10        17.2480  -13.5970   22.6830 C.2       1 Q23      0.741424
     22 O32        16.3220  -12.9400   23.1570 O.2       1 Q23     -0.510946
     23 N1         17.9970  -13.1240   21.6610 N.am      1 Q23     -0.449126
     24 C11        19.0400  -13.9400   21.0120 C.3       1 Q23      0.026890
     25 H11        18.6170  -14.6790   20.3320 H         1 Q23      0.065890
     26 H12        19.6800  -14.4400   21.7390 H         1 Q23      0.065890
     27 C12        19.7890  -12.8140   20.2550 C.3       1 Q23     -0.021193
     28 H13        20.3710  -13.2130   19.4250 H         1 Q23      0.047130
     29 H14        20.4440  -12.2550   20.9230 H         1 Q23      0.047130
     30 C13        18.6160  -11.9370   19.7510 C.3       1 Q23     -0.007405
     31 H15        18.0810  -12.4190   18.9330 H         1 Q23      0.035409
     32 H16        18.9620  -10.9550   19.4300 H         1 Q23      0.035409
     33 C14        17.7330  -11.8390   21.0280 C.3       1 Q23      0.136798
     34 H17        17.9420  -10.9790   21.6640 H         1 Q23      0.083009
     35 C15        16.2780  -11.7360   20.6310 C.2       1 Q23      0.450559
     36 N23        15.6470  -10.5650   20.8610 N.am      1 Q23     -0.458983
     37 H18        16.1120   -9.8310   21.3770 H         1 Q23      0.308166
     38 C16        14.2860  -10.3630   20.3600 C.3       1 Q23     -0.075484
     39 H19        14.0260  -11.1850   19.6930 H         1 Q23      0.146099
     40 H20        14.2440   -9.4220   19.8110 H         1 Q23      0.146099
     41 C17        13.2730  -10.3160   21.5220 C.ar      1 Q23     -0.026495
     42 C18        12.3830  -11.3660   21.7460 C.ar      1 Q23     -0.148616
     43 H21        12.4040  -12.2260   21.0930 H         1 Q23      0.148138
     44 C19        11.4660  -11.3290   22.7960 C.ar      1 Q23     -0.154883
     45 H22        10.7880  -12.1550   22.9510 H         1 Q23      0.172378
     46 C20        11.4270  -10.2260   23.6430 C.ar      1 Q23     -0.082850
     47 H23        10.7180  -10.1880   24.4570 H         1 Q23      0.153418
     48 C21        12.3120   -9.1700   23.4310 C.ar      1 Q23     -0.042315
     49 C22        13.2310   -9.2060   22.3810 C.ar      1 Q23      0.003265
     50 H24        13.9100   -8.3800   22.2290 H         1 Q23      0.090567
     51 Cl1        12.2430   -7.7960   24.5140 Cl        1 Q23     -0.096684
     52 O22        15.7490  -12.7140   20.1110 O.2       1 Q23     -0.530642
     53 C23        17.2830  -16.0360   26.9810 C.ar      1 Q23     -0.060811
     54 H25        16.8780  -15.1260   27.3980 H         1 Q23      0.109547
     55 C24        17.2590  -17.2200   27.7230 C.ar      1 Q23     -0.213353
     56 H26        16.8350  -17.2250   28.7160 H         1 Q23      0.173132
     57 C25        17.7800  -18.3920   27.1840 C.ar      1 Q23     -0.078740
     58 H27        17.7570  -19.3040   27.7620 H         1 Q23      0.158108
     59 C26        18.3340  -18.4000   25.8990 C.ar      1 Q23     -0.213353
     60 H28        18.7390  -19.3110   25.4850 H         1 Q23      0.173132
     61 C27        18.3570  -17.2180   25.1600 C.ar      1 Q23     -0.060811
     62 H29        18.7810  -17.2140   24.1670 H         1 Q23      0.109547
@<TRIPOS>BOND
     1    1    2 ar  
     2    1   10 ar  
     3    1   13 1   
     4    2    3 1   
     5    2    4 ar  
     6    4    5 1   
     7    4    6 ar  
     8    6    7 1   
     9    6    8 ar  
    10    8    9 1   
    11    8   10 ar  
    12   10   11 1   
    13   12   13 1   
    14   12   53 ar  
    15   12   61 ar  
    16   13   14 1   
    17   13   15 1   
    18   15   16 1   
    19   15   17 1   
    20   15   21 1   
    21   17   18 1   
    22   17   19 1   
    23   17   20 1   
    24   21   22 2   
    25   21   23 am  
    26   23   24 1   
    27   23   33 1   
    28   24   25 1   
    29   24   26 1   
    30   24   27 1   
    31   27   28 1   
    32   27   29 1   
    33   27   30 1   
    34   30   31 1   
    35   30   32 1   
    36   30   33 1   
    37   33   34 1   
    38   33   35 1   
    39   35   36 am  
    40   35   52 2   
    41   36   37 1   
    42   36   38 1   
    43   38   39 1   
    44   38   40 1   
    45   38   41 1   
    46   41   42 ar  
    47   41   49 ar  
    48   42   43 1   
    49   42   44 ar  
    50   44   45 1   
    51   44   46 ar  
    52   46   47 1   
    53   46   48 ar  
    54   48   49 ar  
    55   48   51 1   
    56   49   50 1   
    57   53   54 1   
    58   53   55 ar  
    59   55   56 1   
    60   55   57 ar  
    61   57   58 1   
    62   57   59 ar  
    63   59   60 1   
    64   59   61 ar  
    65   61   62 1   
@<TRIPOS>SUBSTRUCTURE
     1 Q23         1 TEMP              0 ****  ****    0 ROOT
