@<TRIPOS>MOLECULE
3DUX.H
   58    60     1     0     0
SMALL
No Charge or Current Charge


@<TRIPOS>ATOM
      1 C11        19.2230  -14.1140   24.5550 C.3       1 Q64      0.052713
      2 H1         19.1100  -13.2160   23.9480 H         1 Q64     -0.018107
      3 C12        19.4910  -13.7480   26.0370 C.3       1 Q64      0.007914
      4 H2         19.5810  -14.6620   26.6230 H         1 Q64      0.006752
      5 H3         18.6600  -13.1530   26.4170 H         1 Q64      0.006752
      6 C13        20.8000  -12.9330   26.1570 C.3       1 Q64     -0.001173
      7 H4         20.9910  -12.7050   27.2060 H         1 Q64      0.003319
      8 H5         20.7020  -12.0040   25.5960 H         1 Q64      0.003319
      9 C16        21.9860  -13.7640   25.5820 C.3       1 Q64      0.024620
     10 H6         22.0650  -14.7060   26.1240 H         1 Q64      0.012594
     11 H7         22.9120  -13.2000   25.6950 H         1 Q64      0.012594
     12 C17        21.7380  -14.0550   24.0710 C.3       1 Q64     -0.001173
     13 H8         22.5720  -14.6290   23.6670 H         1 Q64      0.003319
     14 H9         21.6460  -13.1150   23.5270 H         1 Q64      0.003319
     15 C18        20.4160  -14.8770   23.9260 C.3       1 Q64      0.007914
     16 H10        20.2140  -15.0460   22.8680 H         1 Q64      0.006752
     17 H11        20.5340  -15.8360   24.4310 H         1 Q64      0.006752
     18 N          16.1710  -15.9180   23.2080 N.4       1 Q64     -0.332069
     19 H12        16.4400  -16.8060   23.6070 H         1 Q64      0.308291
     20 H13        15.7740  -16.0670   22.2910 H         1 Q64      0.308291
     21 H14        15.4860  -15.4750   23.8030 H         1 Q64      0.308291
     22 C15        17.3660  -15.0440   23.0940 C.3       1 Q64      0.022423
     23 H15        18.0790  -15.4780   22.3930 H         1 Q64      0.129905
     24 C1         17.9320  -14.9390   24.5340 C.3       1 Q64     -0.153834
     25 H16        17.1920  -14.4600   25.1740 H         1 Q64      0.057128
     26 H17        18.1420  -15.9410   24.9090 H         1 Q64      0.057128
     27 C14        17.0830  -13.6790   22.5060 C.2       1 Q64      0.426706
     28 O32        16.1630  -13.0030   22.9900 O.2       1 Q64     -0.525239
     29 N1         17.7750  -13.1570   21.4440 N.am      1 Q64     -0.155557
     30 C5         17.4290  -11.8450   20.9360 C.3       1 Q64     -0.003596
     31 H18        17.5170  -11.0720   21.6990 H         1 Q64      0.062050
     32 C7         15.9810  -11.7680   20.4910 C.2       1 Q64      0.554468
     33 O22        15.4240  -12.6860   19.9010 O.2       1 Q64     -0.522286
     34 C2         18.3990  -11.6260   19.7770 C.3       1 Q64     -0.128931
     35 H19        18.9730  -10.7140   19.9390 H         1 Q64      0.080421
     36 H20        17.8480  -11.5470   18.8400 H         1 Q64      0.080421
     37 C3         19.3320  -12.8270   19.7330 C.3       1 Q64     -0.026978
     38 H21        20.3520  -12.5050   19.9410 H         1 Q64      0.049606
     39 H22        19.2910  -13.2860   18.7450 H         1 Q64      0.049606
     40 C4         18.8890  -13.8440   20.7900 C.3       1 Q64     -0.018671
     41 H23        18.5610  -14.7750   20.3280 H         1 Q64      0.088633
     42 H24        19.6920  -14.0530   21.4970 H         1 Q64      0.088633
     43 N23        15.3670  -10.6120   20.8330 N.am      1 Q64     -0.514533
     44 H25        15.8190   -9.9620   21.4590 H         1 Q64      0.337301
     45 C24        14.0480  -10.3120   20.2910 C.3       1 Q64     -0.017652
     46 H26        13.7560  -11.0770   19.5710 H         1 Q64      0.112432
     47 H27        14.0560   -9.3380   19.8030 H         1 Q64      0.112432
     48 C25        13.0700  -10.3010   21.4780 C.ar      1 Q64     -0.008932
     49 C26        12.1820  -11.3530   21.6650 C.ar      1 Q64     -0.160846
     50 H28        12.1780  -12.1830   20.9740 H         1 Q64      0.157967
     51 C27        11.2970  -11.3430   22.7390 C.ar      1 Q64     -0.184599
     52 H29        10.6110  -12.1660   22.8750 H         1 Q64      0.171594
     53 C28        11.2870  -10.2800   23.6420 C.ar      1 Q64     -0.032953
     54 H30        10.6000  -10.2740   24.4750 H         1 Q64      0.145880
     55 C29        12.1770   -9.2260   23.4530 C.ar      1 Q64     -0.055900
     56 C30        13.0740   -9.2230   22.3770 C.ar      1 Q64     -0.018632
     57 H31        13.7610   -8.4010   22.2410 H         1 Q64      0.106591
     58 Cl21       12.1650   -7.9020   24.5830 Cl        1 Q64     -0.093168
@<TRIPOS>BOND
     1    1    2 1   
     2    1    3 1   
     3    1   15 1   
     4    1   24 1   
     5    3    4 1   
     6    3    5 1   
     7    3    6 1   
     8    6    7 1   
     9    6    8 1   
    10    6    9 1   
    11    9   10 1   
    12    9   11 1   
    13    9   12 1   
    14   12   13 1   
    15   12   14 1   
    16   12   15 1   
    17   15   16 1   
    18   15   17 1   
    19   18   19 1   
    20   18   20 1   
    21   18   21 1   
    22   18   22 1   
    23   22   23 1   
    24   22   24 1   
    25   22   27 1   
    26   24   25 1   
    27   24   26 1   
    28   27   28 2   
    29   27   29 am  
    30   29   30 1   
    31   29   40 1   
    32   30   31 1   
    33   30   32 1   
    34   30   34 1   
    35   32   33 2   
    36   32   43 am  
    37   34   35 1   
    38   34   36 1   
    39   34   37 1   
    40   37   38 1   
    41   37   39 1   
    42   37   40 1   
    43   40   41 1   
    44   40   42 1   
    45   43   44 1   
    46   43   45 1   
    47   45   46 1   
    48   45   47 1   
    49   45   48 1   
    50   48   49 ar  
    51   48   56 ar  
    52   49   50 1   
    53   49   51 ar  
    54   51   52 1   
    55   51   53 ar  
    56   53   54 1   
    57   53   55 ar  
    58   55   56 ar  
    59   55   58 1   
    60   56   57 1   
@<TRIPOS>SUBSTRUCTURE
     1 Q64         1 TEMP              0 ****  ****    0 ROOT
