@<TRIPOS>MOLECULE
3F68.H
   62    64     1     0     0
SMALL
No Charge or Current Charge


@<TRIPOS>ATOM
      1 C47        17.2460  -17.0620   23.7640 C.2       1 Q91      0.684103
      2 O48        18.0830  -17.7930   23.2470 O.2       1 Q91     -0.577740
      3 C49        16.6730  -17.5100   25.0830 C.3       1 Q91     -0.233786
      4 H1         15.9460  -16.7760   25.4310 H         1 Q91      0.071132
      5 H2         17.4750  -17.6020   25.8150 H         1 Q91      0.071132
      6 H3         16.1830  -18.4760   24.9570 H         1 Q91      0.071132
      7 C1         19.5960  -14.3690   25.0120 C.3       1 Q91      0.117880
      8 H4         19.7820  -15.2260   25.6590 H         1 Q91      0.005934
      9 C6         20.4340  -14.4730   23.7030 C.3       1 Q91     -0.059084
     10 H5         20.3150  -13.5570   23.1240 H         1 Q91      0.021347
     11 H6         20.0830  -15.3220   23.1160 H         1 Q91      0.021347
     12 C5         21.9310  -14.6710   24.0480 C.3       1 Q91     -0.019228
     13 H7         22.5130  -14.6780   23.1270 H         1 Q91      0.005584
     14 H8         22.0570  -15.6230   24.5650 H         1 Q91      0.005584
     15 C4         22.4320  -13.5320   24.9550 C.3       1 Q91      0.000791
     16 H9         22.4860  -12.6200   24.3610 H         1 Q91      0.009207
     17 H10        23.4280  -13.7920   25.3120 H         1 Q91      0.009207
     18 C3         21.5350  -13.2610   26.1780 C.3       1 Q91     -0.019228
     19 H11        21.8720  -12.3470   26.6660 H         1 Q91      0.005584
     20 H12        21.6250  -14.0970   26.8720 H         1 Q91      0.005584
     21 C2         20.0410  -13.0960   25.7820 C.3       1 Q91     -0.059084
     22 H13        19.4330  -12.9770   26.6790 H         1 Q91      0.021347
     23 H14        19.9240  -12.2200   25.1440 H         1 Q91      0.021347
     24 N          16.8970  -15.8960   23.1390 N.am      1 Q91     -0.625296
     25 H15        16.0200  -15.8290   22.6420 H         1 Q91      0.357670
     26 C15        17.8040  -14.7420   23.1940 C.3       1 Q91      0.034185
     27 H16        18.7330  -14.9930   22.6820 H         1 Q91      0.110841
     28 C31        18.0660  -14.4250   24.7040 C.3       1 Q91     -0.110774
     29 H17        17.6190  -13.4610   24.9480 H         1 Q91      0.047137
     30 H18        17.6080  -15.2030   25.3150 H         1 Q91      0.047137
     31 C14        17.2690  -13.5320   22.4620 C.2       1 Q91      0.308817
     32 O32        16.2220  -13.0730   22.9020 O.2       1 Q91     -0.465896
     33 N1         17.9290  -12.9930   21.3930 N.am      1 Q91     -0.029948
     34 C32        17.4840  -11.7760   20.7390 C.3       1 Q91     -0.032033
     35 H19        17.6620  -10.8810   21.3350 H         1 Q91      0.092205
     36 C7         15.9990  -11.7370   20.4600 C.2       1 Q91      0.379097
     37 O22        15.4200  -12.7430   20.0720 O.2       1 Q91     -0.531838
     38 C35        18.2600  -11.9090   19.3920 C.3       1 Q91      0.031678
     39 H20        18.4550  -10.9290   18.9570 H         1 Q91      0.024890
     40 H21        17.7030  -12.5180   18.6800 H         1 Q91      0.024890
     41 C34        19.5780  -12.6040   19.7990 C.3       1 Q91     -0.075778
     42 H22        20.2630  -11.9030   20.2750 H         1 Q91      0.041893
     43 H23        20.0660  -13.0600   18.9380 H         1 Q91      0.041893
     44 C33        19.0900  -13.6780   20.8010 C.3       1 Q91     -0.043021
     45 H24        18.7980  -14.5970   20.2940 H         1 Q91      0.046878
     46 H25        19.8490  -13.9020   21.5500 H         1 Q91      0.046878
     47 N23        15.3080  -10.5830   20.6460 N.am      1 Q91     -0.157681
     48 H26        15.7680   -9.7450   20.9730 H         1 Q91      0.171997
     49 C24        13.8730  -10.5960   20.3560 C.3       1 Q91     -0.013047
     50 H27        13.6290  -11.5260   19.8420 H         1 Q91      0.052921
     51 H28        13.6400   -9.7510   19.7080 H         1 Q91      0.052921
     52 C25        13.0160  -10.4950   21.6230 C.ar      1 Q91      0.056105
     53 C26        12.1440  -11.5250   21.9710 C.ar      1 Q91     -0.115226
     54 H29        12.0640  -12.3940   21.3350 H         1 Q91      0.135102
     55 C27        11.3700  -11.4470   23.1350 C.ar      1 Q91     -0.222224
     56 H30        10.7290  -12.2700   23.4150 H         1 Q91      0.162414
     57 C28        11.4280  -10.2920   23.9420 C.ar      1 Q91     -0.041127
     58 H31        10.7900  -10.1970   24.8080 H         1 Q91      0.128404
     59 C29        12.3220   -9.2710   23.6070 C.ar      1 Q91     -0.066672
     60 C30        13.0730   -9.3430   22.4230 C.ar      1 Q91     -0.054908
     61 H32        13.6950   -8.5110   22.1270 H         1 Q91      0.129537
     62 Cl21       12.4570   -7.8540   24.6340 Cl        1 Q91     -0.120111
@<TRIPOS>BOND
     1    1    2 2   
     2    1    3 1   
     3    1   24 am  
     4    3    4 1   
     5    3    5 1   
     6    3    6 1   
     7    7    8 1   
     8    7    9 1   
     9    7   21 1   
    10    7   28 1   
    11    9   10 1   
    12    9   11 1   
    13    9   12 1   
    14   12   13 1   
    15   12   14 1   
    16   12   15 1   
    17   15   16 1   
    18   15   17 1   
    19   15   18 1   
    20   18   19 1   
    21   18   20 1   
    22   18   21 1   
    23   21   22 1   
    24   21   23 1   
    25   24   25 1   
    26   24   26 1   
    27   26   27 1   
    28   26   28 1   
    29   26   31 1   
    30   28   29 1   
    31   28   30 1   
    32   31   32 2   
    33   31   33 am  
    34   33   34 1   
    35   33   44 1   
    36   34   35 1   
    37   34   36 1   
    38   34   38 1   
    39   36   37 2   
    40   36   47 am  
    41   38   39 1   
    42   38   40 1   
    43   38   41 1   
    44   41   42 1   
    45   41   43 1   
    46   41   44 1   
    47   44   45 1   
    48   44   46 1   
    49   47   48 1   
    50   47   49 1   
    51   49   50 1   
    52   49   51 1   
    53   49   52 1   
    54   52   53 ar  
    55   52   60 ar  
    56   53   54 1   
    57   53   55 ar  
    58   55   56 1   
    59   55   57 ar  
    60   57   58 1   
    61   57   59 ar  
    62   59   60 ar  
    63   59   62 1   
    64   60   61 1   
@<TRIPOS>SUBSTRUCTURE
     1 Q91         1 TEMP              0 ****  ****    0 ROOT
