@<TRIPOS>MOLECULE
99P_1001
   51    53     1     0     0
SMALL
No Charge or Current Charge


@<TRIPOS>ATOM
      1 C1         19.6110  -13.9940   24.6830 C.ar   1001 99P      0.000481
      2 C2         18.1780  -14.5050   24.6150 C.3    1001 99P     -0.070787
      3 C3         17.6990  -14.5780   23.1540 C.3    1001 99P      0.061961
      4 N4         16.3850  -15.3010   23.0820 N.4    1001 99P     -0.075724
      5 C5         17.4730  -13.1790   22.5570 C.2    1001 99P      0.312962
      6 N6         18.3390  -12.7830   21.5650 N.am   1001 99P     -0.149287
      7 O7         16.5570  -12.4680   23.0010 O.2    1001 99P     -0.469691
      8 C8         20.6710  -14.6660   24.0630 C.ar   1001 99P     -0.140675
      9 C9         21.9580  -14.1600   24.1540 C.ar   1001 99P     -0.154678
     10 C10        22.2090  -12.9810   24.8600 C.ar   1001 99P     -0.086140
     11 C11        21.1620  -12.3040   25.4820 C.ar   1001 99P     -0.154678
     12 C12        19.8780  -12.8100   25.3900 C.ar   1001 99P     -0.140675
     13 C13        18.2050  -11.4320   20.9920 C.3    1001 99P      0.011356
     14 C14        16.7460  -11.3110   20.4680 C.2    1001 99P      0.469418
     15 O15        16.2600  -12.1930   19.7200 O.2    1001 99P     -0.486472
     16 N16        16.0870  -10.1430   20.7160 N.am   1001 99P     -0.464354
     17 C17        14.7610   -9.8760   20.1810 C.3    1001 99P     -0.036127
     18 C18        13.7180  -10.4350   21.0910 C.ar   1001 99P     -0.048728
     19 C19        19.1940  -11.4200   19.8060 C.3    1001 99P     -0.011113
     20 C20        20.2390  -12.4020   20.2720 C.3    1001 99P     -0.045319
     21 C21        19.4570  -13.5360   20.9490 C.3    1001 99P     -0.017075
     22 C22        12.9340   -9.6220   21.8870 C.ar   1001 99P      0.290211
     23 N23        11.9730  -10.0820   22.7300 N.ar   1001 99P     -0.578715
     24 C24        11.7790  -11.4190   22.7850 C.ar   1001 99P      0.204929
     25 C25        12.5170  -12.2990   22.0250 C.ar   1001 99P     -0.224115
     26 C26        13.4900  -11.7940   21.1770 C.ar   1001 99P     -0.095182
     27 H1         17.5290  -13.8290   25.1720 H      1001 99P      0.085807
     28 H2         18.1310  -15.5000   25.0580 H      1001 99P      0.085807
     29 H3         18.4760  -15.0980   22.5930 H      1001 99P      0.058898
     30 H4         15.6910  -14.7920   23.6110 H      1001 99P      0.224475
     31 H5         16.4890  -16.2280   23.4680 H      1001 99P      0.224475
     32 H6         16.0900  -15.3690   22.1180 H      1001 99P      0.224475
     33 H7         20.4860  -15.5780   23.5140 H      1001 99P      0.133826
     34 H8         22.7740  -14.6810   23.6750 H      1001 99P      0.161088
     35 H9         23.2150  -12.5940   24.9240 H      1001 99P      0.147932
     36 H10        21.3510  -11.3930   26.0310 H      1001 99P      0.161088
     37 H11        19.0660  -12.2850   25.8710 H      1001 99P      0.133826
     38 H12        18.4070  -10.6200   21.6910 H      1001 99P      0.106503
     39 H13        16.5340   -9.4410   21.2890 H      1001 99P      0.295321
     40 H14        14.6680  -10.3400   19.1990 H      1001 99P      0.119781
     41 H15        14.6200   -8.7990   20.0890 H      1001 99P      0.119781
     42 H16        19.6200  -10.4280   19.6540 H      1001 99P      0.044687
     43 H17        18.7150  -11.7550   18.8860 H      1001 99P      0.044687
     44 H18        20.9170  -11.9290   20.9820 H      1001 99P      0.056693
     45 H19        20.8090  -12.7840   19.4250 H      1001 99P      0.056693
     46 H20        19.0960  -14.2630   20.2210 H      1001 99P      0.055908
     47 H21        20.0600  -14.0440   21.7020 H      1001 99P      0.055908
     48 H22        13.0950   -8.5550   21.8360 H      1001 99P      0.072416
     49 H23        11.0200  -11.8100   23.4470 H      1001 99P      0.101591
     50 H24        12.3410  -13.3630   22.0890 H      1001 99P      0.161064
     51 H25        14.0770  -12.4720   20.5760 H      1001 99P      0.165485
@<TRIPOS>BOND
     1    1    2 1   
     2    1    8 ar  
     3    1   12 ar  
     4    2    3 1   
     5    2   27 1   
     6    2   28 1   
     7    3    4 1   
     8    3    5 1   
     9    3   29 1   
    10    4   30 1   
    11    4   31 1   
    12    4   32 1   
    13    5    6 am  
    14    5    7 2   
    15    6   13 1   
    16    6   21 1   
    17    8    9 ar  
    18    8   33 1   
    19    9   10 ar  
    20    9   34 1   
    21   10   11 ar  
    22   10   35 1   
    23   11   12 ar  
    24   11   36 1   
    25   12   37 1   
    26   13   14 1   
    27   13   19 1   
    28   13   38 1   
    29   14   15 2   
    30   14   16 am  
    31   16   17 1   
    32   16   39 1   
    33   17   18 1   
    34   17   40 1   
    35   17   41 1   
    36   18   22 ar  
    37   18   26 ar  
    38   19   20 1   
    39   19   42 1   
    40   19   43 1   
    41   20   21 1   
    42   20   44 1   
    43   20   45 1   
    44   21   46 1   
    45   21   47 1   
    46   22   23 ar  
    47   22   48 1   
    48   23   24 ar  
    49   24   25 ar  
    50   24   49 1   
    51   25   26 ar  
    52   25   50 1   
    53   26   51 1   
@<TRIPOS>SUBSTRUCTURE
     1 99P         1 TEMP              0 ****  ****    0 ROOT
