@<TRIPOS>MOLECULE
10P_1001
   55    57     1     0     0
SMALL
No Charge or Current Charge


@<TRIPOS>ATOM
      1 N22        16.2450  -16.0150   22.9050 N.4    1001 10P     -0.325855
      2 C3_        17.5270  -15.3320   22.9680 C.3    1001 10P      0.060233
      3 C4_        17.3150  -13.9460   22.4080 C.2    1001 10P      0.353235
      4 O24        16.4100  -13.2450   22.8480 O.2    1001 10P     -0.524550
      5 C2_        17.9810  -15.3150   24.4320 C.3    1001 10P     -0.183799
      6 C1_        19.3940  -14.7950   24.5660 C.ar   1001 10P      0.029511
      7 C5_        19.6390  -13.7000   25.3810 C.ar   1001 10P     -0.145904
      8 C9_        20.4430  -15.4020   23.8780 C.ar   1001 10P     -0.145904
      9 C6_        20.9260  -13.2020   25.5000 C.ar   1001 10P     -0.156807
     10 C8_        21.7350  -14.9070   24.0050 C.ar   1001 10P     -0.156807
     11 C7_        21.9760  -13.8030   24.8140 C.ar   1001 10P     -0.073533
     12 N23        18.1100  -13.5150   21.4340 N.am   1001 10P     -0.116467
     13 C10        17.9050  -12.1760   20.8580 C.3    1001 10P      0.002880
     14 C11        16.5020  -12.0120   20.3250 C.2    1001 10P      0.483824
     15 O25        15.9740  -12.8780   19.6250 O.2    1001 10P     -0.474771
     16 C14        18.9370  -12.0970   19.7400 C.3    1001 10P     -0.111901
     17 C15        19.9880  -13.1470   20.0810 C.3    1001 10P      0.003145
     18 C16        19.2240  -14.2400   20.8090 C.3    1001 10P     -0.019683
     19 C12        14.4710  -10.6000   20.2420 C.3    1001 10P      0.109609
     20 C13        13.4610  -11.2050   21.1990 C.ar   1001 10P      0.013018
     21 C17        12.8040  -10.4460   22.1600 C.ar   1001 10P     -0.002933
     22 C18        11.2320  -10.1850   24.0120 C.3    1001 10P     -0.189789
     23 C19        11.6370  -12.3130   22.9410 C.ar   1001 10P      0.009787
     24 C20        12.2650  -13.1190   22.0010 C.ar   1001 10P     -0.169360
     25 C21        13.1920  -12.5690   21.1300 C.ar   1001 10P     -0.031622
     26 N26        15.8480  -10.9030   20.6690 N.am   1001 10P     -0.527737
     27 N27        11.9160  -11.0010   22.9970 N.pl3  1001 10P      0.080724
     28 H1_        15.9310  -16.0540   21.9460 H      1001 10P      0.311928
     29 H2_        15.5680  -15.5120   23.4600 H      1001 10P      0.311928
     30 H3_        16.3450  -16.9530   23.2650 H      1001 10P      0.311928
     31 H4_        18.3060  -15.8250   22.3870 H      1001 10P      0.111155
     32 H5_        17.9380  -16.3290   24.8280 H      1001 10P      0.123705
     33 H6_        17.3110  -14.6720   25.0030 H      1001 10P      0.123705
     34 H7_        18.8280  -13.2360   25.9220 H      1001 10P      0.135341
     35 H8_        20.2520  -16.2570   23.2460 H      1001 10P      0.135341
     36 H9_        21.1150  -12.3440   26.1280 H      1001 10P      0.168300
     37 H10        22.5500  -15.3790   23.4760 H      1001 10P      0.168300
     38 H11        22.9780  -13.4120   24.9100 H      1001 10P      0.154255
     39 H12        18.0240  -11.3820   21.5950 H      1001 10P      0.091214
     40 H13        19.3870  -11.1050   19.7060 H      1001 10P      0.081377
     41 H14        18.4750  -12.3190   18.7780 H      1001 10P      0.081377
     42 H15        20.7590  -12.7230   20.7250 H      1001 10P      0.048705
     43 H16        20.4480  -13.5390   19.1740 H      1001 10P      0.048705
     44 H17        18.8570  -14.9920   20.1100 H      1001 10P      0.069020
     45 H18        19.8500  -14.7190   21.5620 H      1001 10P      0.069020
     46 H19        14.3350   -9.5190   20.2170 H      1001 10P      0.090520
     47 H20        14.3080  -11.0100   19.2450 H      1001 10P      0.090520
     48 H21        13.0130   -9.3890   22.2340 H      1001 10P      0.165676
     49 H22        11.5630   -9.1500   23.9290 H      1001 10P      0.140712
     50 H23        11.4710  -10.5650   25.0050 H      1001 10P      0.140712
     51 H24        10.1550  -10.2360   23.8530 H      1001 10P      0.140712
     52 H25        10.9230  -12.7420   23.6280 H      1001 10P      0.200236
     53 H26        12.0320  -14.1720   21.9490 H      1001 10P      0.202111
     54 H27        13.6990  -13.1910   20.4070 H      1001 10P      0.181009
     55 H28        16.3230  -10.2320   21.2560 H      1001 10P      0.313946
@<TRIPOS>BOND
     1    1    2 1   
     2    1   28 1   
     3    1   29 1   
     4    1   30 1   
     5    2    3 1   
     6    2    5 1   
     7    2   31 1   
     8    3    4 2   
     9    3   12 am  
    10    5    6 1   
    11    5   32 1   
    12    5   33 1   
    13    6    7 ar  
    14    6    8 ar  
    15    7    9 ar  
    16    7   34 1   
    17    8   10 ar  
    18    8   35 1   
    19    9   11 ar  
    20    9   36 1   
    21   10   11 ar  
    22   10   37 1   
    23   11   38 1   
    24   12   13 1   
    25   12   18 1   
    26   13   14 1   
    27   13   16 1   
    28   13   39 1   
    29   14   15 2   
    30   14   26 am  
    31   16   17 1   
    32   16   40 1   
    33   16   41 1   
    34   17   18 1   
    35   17   42 1   
    36   17   43 1   
    37   18   44 1   
    38   18   45 1   
    39   19   20 1   
    40   19   26 1   
    41   19   46 1   
    42   19   47 1   
    43   20   21 ar  
    44   20   25 ar  
    45   21   27 2   
    46   21   48 1   
    47   22   27 1   
    48   22   49 1   
    49   22   50 1   
    50   22   51 1   
    51   23   24 ar  
    52   23   27 1   
    53   23   52 1   
    54   24   25 ar  
    55   24   53 1   
    56   25   54 1   
    57   26   55 1   
@<TRIPOS>SUBSTRUCTURE
     1 10P         1 TEMP              0 ****  ****    0 ROOT
