@<TRIPOS>MOLECULE
06P_1001
   55    57     1     0     0
SMALL
No Charge or Current Charge


@<TRIPOS>ATOM
      1 N4         16.3240  -15.5750   23.1220 N.4    1001 06P     -0.352764
      2 C3         17.5740  -14.8360   23.1290 C.3    1001 06P      0.022694
      3 C5         17.3340  -13.4700   22.5350 C.2    1001 06P      0.413508
      4 O7         16.4020  -12.7660   22.9200 O.2    1001 06P     -0.526976
      5 C2         18.0670  -14.7750   24.5810 C.3    1001 06P     -0.205626
      6 C1         19.4860  -14.2600   24.6610 C.ar   1001 06P      0.029057
      7 C8         19.7430  -13.0940   25.3650 C.ar   1001 06P     -0.143664
      8 C12        20.5370  -14.9340   24.0400 C.ar   1001 06P     -0.143664
      9 C9         21.0300  -12.5830   25.4470 C.ar   1001 06P     -0.144936
     10 C11        21.8300  -14.4270   24.1340 C.ar   1001 06P     -0.144936
     11 C10        22.0810  -13.2550   24.8330 C.ar   1001 06P     -0.087325
     12 N6         18.1550  -13.0590   21.5740 N.am   1001 06P     -0.142474
     13 C13        17.9440  -11.7490   20.9560 C.3    1001 06P     -0.042884
     14 C14        16.5540  -11.6290   20.3890 C.2    1001 06P      0.551832
     15 O15        16.0470  -12.5660   19.7770 O.2    1001 06P     -0.498525
     16 C19        18.9730  -11.7000   19.8310 C.3    1001 06P     -0.110105
     17 C20        20.0360  -12.7230   20.2060 C.3    1001 06P     -0.001659
     18 C21        19.2970  -13.7850   21.0070 C.3    1001 06P     -0.031839
     19 N16        15.9050  -10.4820   20.5940 N.am   1001 06P     -0.552105
     20 C17        14.5420  -10.2290   20.0990 C.3    1001 06P      0.037025
     21 C18        13.5360  -10.4590   21.2090 C.ar   1001 06P      0.143582
     22 C22        13.2030   -9.4420   22.1000 C.ar   1001 06P     -0.142411
     23 C23        12.2790   -9.6970   23.1090 C.ar   1001 06P     -0.021785
     24 N24        11.7190  -10.9100   23.2440 N.pl3  1001 06P      0.096151
     25 C25        10.7470  -11.1450   24.3190 C.3    1001 06P     -0.149721
     26 C26        12.0350  -11.9080   22.4010 C.ar   1001 06P     -0.021785
     27 C27        12.9460  -11.7040   21.3730 C.ar   1001 06P     -0.142411
     28 H1         15.9720  -15.6330   22.1770 H      1001 06P      0.321786
     29 H2         15.6490  -15.1000   23.7040 H      1001 06P      0.321786
     30 H3         16.4810  -16.5060   23.4800 H      1001 06P      0.321786
     31 H4         18.3440  -15.3170   22.5260 H      1001 06P      0.124194
     32 H5         18.0280  -15.7760   25.0110 H      1001 06P      0.133106
     33 H6         17.4160  -14.1100   25.1490 H      1001 06P      0.133106
     34 H7         18.9310  -12.5770   25.8560 H      1001 06P      0.132544
     35 H8         20.3490  -15.8440   23.4890 H      1001 06P      0.132544
     36 H9         21.2150  -11.6660   25.9860 H      1001 06P      0.165216
     37 H10        22.6460  -14.9510   23.6580 H      1001 06P      0.165216
     38 H11        23.0870  -12.8670   24.9000 H      1001 06P      0.156630
     39 H12        18.0520  -10.9360   21.6740 H      1001 06P      0.105234
     40 H13        19.4110  -10.7050   19.7590 H      1001 06P      0.080212
     41 H14        18.5100  -11.9630   18.8800 H      1001 06P      0.080212
     42 H15        20.8160  -12.2610   20.8110 H      1001 06P      0.053500
     43 H16        20.4810  -13.1590   19.3110 H      1001 06P      0.053500
     44 H17        18.9600  -14.5960   20.3610 H      1001 06P      0.073187
     45 H18        19.9320  -14.1890   21.7960 H      1001 06P      0.073187
     46 H19        16.3710   -9.7520   21.1140 H      1001 06P      0.337287
     47 H20        14.3270  -10.9050   19.2710 H      1001 06P      0.120110
     48 H21        14.4690   -9.1980   19.7540 H      1001 06P      0.120110
     49 H22        13.6570   -8.4660   22.0090 H      1001 06P      0.156935
     50 H23        12.0080   -8.9070   23.7940 H      1001 06P      0.204673
     51 H24        10.6170  -10.2300   24.8980 H      1001 06P      0.128692
     52 H25        11.1110  -11.9390   24.9710 H      1001 06P      0.128692
     53 H26         9.7910  -11.4400   23.8860 H      1001 06P      0.128692
     54 H27        11.5760  -12.8780   22.5240 H      1001 06P      0.204673
     55 H28        13.1950  -12.5130   20.7020 H      1001 06P      0.156935
@<TRIPOS>BOND
     1    1    2 1   
     2    1   28 1   
     3    1   29 1   
     4    1   30 1   
     5    2    3 1   
     6    2    5 1   
     7    2   31 1   
     8    3    4 2   
     9    3   12 am  
    10    5    6 1   
    11    5   32 1   
    12    5   33 1   
    13    6    7 ar  
    14    6    8 ar  
    15    7    9 ar  
    16    7   34 1   
    17    8   10 ar  
    18    8   35 1   
    19    9   11 ar  
    20    9   36 1   
    21   10   11 ar  
    22   10   37 1   
    23   11   38 1   
    24   12   13 1   
    25   12   18 1   
    26   13   14 1   
    27   13   16 1   
    28   13   39 1   
    29   14   15 2   
    30   14   19 am  
    31   16   17 1   
    32   16   40 1   
    33   16   41 1   
    34   17   18 1   
    35   17   42 1   
    36   17   43 1   
    37   18   44 1   
    38   18   45 1   
    39   19   20 1   
    40   19   46 1   
    41   20   21 1   
    42   20   47 1   
    43   20   48 1   
    44   21   22 ar  
    45   21   27 ar  
    46   22   23 ar  
    47   22   49 1   
    48   23   24 1   
    49   23   50 1   
    50   24   25 1   
    51   24   26 2   
    52   25   51 1   
    53   25   52 1   
    54   25   53 1   
    55   26   27 ar  
    56   26   54 1   
    57   27   55 1   
@<TRIPOS>SUBSTRUCTURE
     1 06P         1 TEMP              0 ****  ****    0 ROOT
