@<TRIPOS>MOLECULE
98P
   55    57     1     0     0
SMALL
No Charge or Current Charge


@<TRIPOS>ATOM
      1 N22        16.3970  -15.3470   23.1690 N.4       1 98P     -0.330900
      2 H223       16.5620  -16.2740   23.5340 H         1 98P      0.313400
      3 H221       16.1380  -15.4100   22.1950 H         1 98P      0.313400
      4 H222       15.6500  -14.9090   23.6890 H         1 98P      0.313400
      5 C3         17.6100  -14.5520   23.2980 C.3       1 98P      0.034700
      6 H3         18.4390  -15.0180   22.7660 H         1 98P      0.119500
      7 C4         17.3580  -13.1950   22.6970 C.2       1 98P      0.394800
      8 O26        16.3610  -12.5520   23.0190 O.2       1 98P     -0.522200
      9 C2         18.0050  -14.4560   24.7780 C.3       1 98P     -0.169700
     10 H21        17.9220  -15.4400   25.2390 H         1 98P      0.120100
     11 H22        17.3370  -13.7600   25.2860 H         1 98P      0.120100
     12 C1         19.4320  -13.9630   24.9000 C.ar      1 98P      0.018900
     13 C5         20.4820  -14.7060   24.3680 C.ar      1 98P     -0.142800
     14 H5         20.2830  -15.6400   23.8640 H         1 98P      0.134300
     15 C9         19.6990  -12.7720   25.5610 C.ar      1 98P     -0.142800
     16 H9         18.8870  -12.2010   25.9880 H         1 98P      0.134300
     17 C6         21.7910  -14.2420   24.4870 C.ar      1 98P     -0.142000
     18 H6         22.6050  -14.8160   24.0680 H         1 98P      0.166300
     19 C8         21.0030  -12.3100   25.6770 C.ar      1 98P     -0.142000
     20 H8         21.2020  -11.3770   26.1840 H         1 98P      0.166300
     21 C7         22.0540  -13.0480   25.1400 C.ar      1 98P     -0.102800
     22 H7         23.0700  -12.6920   25.2320 H         1 98P      0.163200
     23 N23        18.2460  -12.7420   21.8050 N.am      1 98P     -0.167300
     24 C10        18.0340  -11.4370   21.1770 C.3       1 98P     -0.010800
     25 H10        18.0300  -10.6200   21.8990 H         1 98P      0.111100
     26 C11        16.7110  -11.4310   20.4770 C.2       1 98P      0.511100
     27 O27        16.3900  -12.3850   19.7730 O.2       1 98P     -0.482200
     28 C14        19.1650  -11.2950   20.1670 C.3       1 98P     -0.168500
     29 H141       19.5930  -10.2940   20.2150 H         1 98P      0.098300
     30 H142       18.7980  -11.4850   19.1580 H         1 98P      0.098300
     31 C15        20.2070  -12.3360   20.5570 C.3       1 98P      0.019700
     32 H151       20.9750  -11.8860   21.1860 H         1 98P      0.046600
     33 H152       20.6700  -12.7600   19.6660 H         1 98P      0.046600
     34 C16        19.4590  -13.4130   21.3270 C.3       1 98P      0.000900
     35 H161       19.2060  -14.2490   20.6740 H         1 98P      0.065600
     36 H162       20.0560  -13.7740   22.1650 H         1 98P      0.065600
     37 C12        14.5970  -10.2330   20.0690 C.3       1 98P     -0.009900
     38 H121       14.3140   -9.1810   20.0410 H         1 98P      0.124700
     39 H122       14.6060  -10.6340   19.0550 H         1 98P      0.124700
     40 C13        13.6110  -11.0090   20.9210 C.ar      1 98P      0.052200
     41 C17        13.4330  -12.3730   20.7490 C.ar      1 98P      0.006600
     42 H17        14.0020  -12.8960   19.9950 H         1 98P      0.169200
     43 C18        12.3950  -14.4910   21.3050 C.3       1 98P     -0.164200
     44 H181       13.0570  -14.8240   20.5060 H         1 98P      0.134900
     45 H182       11.3610  -14.7020   21.0320 H         1 98P      0.134900
     46 H183       12.6430  -15.0190   22.2260 H         1 98P      0.134900
     47 C19        11.8350  -12.4310   22.4530 C.ar      1 98P      0.003700
     48 H19        11.1360  -13.0010   23.0470 H         1 98P      0.207000
     49 C20        11.9720  -11.0690   22.6730 C.ar      1 98P     -0.096200
     50 H20        11.3970  -10.5690   23.4380 H         1 98P      0.178400
     51 C21        12.8680  -10.3690   21.8820 C.ar      1 98P      0.018300
     52 N24        15.9190  -10.3750   20.6700 N.am      1 98P     -0.527400
     53 H24        16.2530   -9.6310   21.2660 H         1 98P      0.328500
     54 N25        12.5620  -13.0480   21.5090 N.pl3     1 98P      0.067700
     55 Cl28       13.0960   -8.6210   22.1220 Cl        1 98P      0.059500
@<TRIPOS>BOND
     1    1    2 1   
     2    1    3 1   
     3    1    4 1   
     4    1    5 1   
     5    5    6 1   
     6    5    7 1   
     7    5    9 1   
     8    7    8 2   
     9    7   23 am  
    10    9   10 1   
    11    9   11 1   
    12    9   12 1   
    13   12   13 ar  
    14   12   15 ar  
    15   13   14 1   
    16   13   17 ar  
    17   15   16 1   
    18   15   19 ar  
    19   17   18 1   
    20   17   21 ar  
    21   19   20 1   
    22   19   21 ar  
    23   21   22 1   
    24   23   24 1   
    25   23   34 1   
    26   24   25 1   
    27   24   26 1   
    28   24   28 1   
    29   26   27 2   
    30   26   52 am  
    31   28   29 1   
    32   28   30 1   
    33   28   31 1   
    34   31   32 1   
    35   31   33 1   
    36   31   34 1   
    37   34   35 1   
    38   34   36 1   
    39   37   38 1   
    40   37   39 1   
    41   37   40 1   
    42   37   52 1   
    43   40   41 ar  
    44   40   51 ar  
    45   41   42 1   
    46   41   54 2   
    47   43   44 1   
    48   43   45 1   
    49   43   46 1   
    50   43   54 1   
    51   47   48 1   
    52   47   49 ar  
    53   47   54 1   
    54   49   50 1   
    55   49   51 ar  
    56   51   55 1   
    57   52   53 1   
@<TRIPOS>SUBSTRUCTURE
     1 98P         1 TEMP              0 ****  ****    0 ROOT
