@<TRIPOS>MOLECULE
02P_5
   55    57     1     0     0
SMALL
No Charge or Current Charge


@<TRIPOS>ATOM
      1 N10        16.4240  -15.5120   23.3060 N.4       5 02P     -0.387766
      2 C8         17.6850  -14.7880   23.3080 C.3       5 02P      0.043998
      3 C9         17.4080  -13.4370   22.7140 C.2       5 02P      0.452757
      4 O12        16.4780  -12.7610   23.1340 O.2       5 02P     -0.558214
      5 C7         18.1720  -14.6910   24.7490 C.3       5 02P     -0.161329
      6 C4         19.5740  -14.1400   24.8310 C.ar      5 02P     -0.025442
      7 C3         19.7810  -12.9810   25.5680 C.ar      5 02P     -0.133238
      8 C5         20.6460  -14.7660   24.1940 C.ar      5 02P     -0.133238
      9 C26        21.0550  -12.4410   25.6690 C.ar      5 02P     -0.126529
     10 C6         21.9240  -14.2220   24.2990 C.ar      5 02P     -0.126529
     11 C1         22.1300  -13.0620   25.0390 C.ar      5 02P     -0.104228
     12 N11        18.1760  -13.0170   21.7070 N.am      5 02P     -0.180044
     13 C13        17.8850  -11.7110   21.1120 C.3       5 02P      0.001412
     14 C17        16.4510  -11.6410   20.6420 C.2       5 02P      0.421758
     15 O28        15.9570  -12.5680   20.0060 O.2       5 02P     -0.441114
     16 C15        18.8570  -11.6130   19.9430 C.3       5 02P     -0.139936
     17 C16        19.9600  -12.6050   20.2520 C.3       5 02P     -0.014822
     18 C14        19.3160  -13.6980   21.0900 C.3       5 02P     -0.036021
     19 Cl2        12.2700   -7.5340   24.5420 Cl        5 02P      0.062235
     20 N18        15.7480  -10.5500   20.9450 N.am      5 02P     -0.441615
     21 C19        14.3550  -10.3360   20.5670 C.3       5 02P     -0.017697
     22 C20        13.4280  -10.2790   21.7690 C.ar      5 02P      0.123668
     23 N21        12.7200  -11.3620   22.1460 N.pl3     5 02P      0.033136
     24 C22        13.3000   -9.0870   22.4730 C.ar      5 02P     -0.027186
     25 C23        12.4470   -9.0340   23.5760 C.ar      5 02P     -0.006927
     26 C24        11.7230  -10.1610   23.9420 C.ar      5 02P     -0.049743
     27 C25        11.8890  -11.3200   23.2010 C.ar      5 02P     -0.031875
     28 C27        12.8480  -12.6260   21.4090 C.3       5 02P     -0.063334
     29 H101       16.0810  -15.5890   22.3590 H         5 02P      0.326863
     30 H102       15.7490  -15.0140   23.8690 H         5 02P      0.326863
     31 H103       16.5660  -16.4360   23.6890 H         5 02P      0.326863
     32 H8         18.4620  -15.2820   22.7260 H         5 02P      0.115264
     33 H71        18.1570  -15.6860   25.1940 H         5 02P      0.133681
     34 H72        17.5020  -14.0350   25.3040 H         5 02P      0.133681
     35 H3         18.9500  -12.5000   26.0620 H         5 02P      0.126750
     36 H5         20.4860  -15.6680   23.6220 H         5 02P      0.126750
     37 H26        21.2130  -11.5370   26.2380 H         5 02P      0.162172
     38 H6         22.7560  -14.7010   23.8050 H         5 02P      0.162172
     39 H1         23.1220  -12.6440   25.1250 H         5 02P      0.163047
     40 H13        18.0030  -10.8900   21.8190 H         5 02P      0.121249
     41 H151       19.2620  -10.6040   19.8670 H         5 02P      0.102811
     42 H152       18.3590  -11.8750   19.0100 H         5 02P      0.102811
     43 H161       20.7600  -12.1200   20.8120 H         5 02P      0.057457
     44 H162       20.3630  -13.0230   19.3300 H         5 02P      0.057457
     45 H141       18.9850  -14.5270   20.4640 H         5 02P      0.076890
     46 H142       20.0070  -14.0680   21.8470 H         5 02P      0.076890
     47 H18        16.2100   -9.8230   21.4710 H         5 02P      0.291949
     48 H191       14.0390  -11.1540   19.9200 H         5 02P      0.129418
     49 H192       14.2810   -9.3940   20.0240 H         5 02P      0.129418
     50 H22        13.8550   -8.2110   22.1690 H         5 02P      0.129146
     51 H24        11.0470  -10.1350   24.7840 H         5 02P      0.172915
     52 H25        11.3390  -12.2080   23.4770 H         5 02P      0.207430
     53 H271       13.5530  -12.4980   20.5880 H         5 02P      0.102638
     54 H272       11.8750  -12.9140   21.0110 H         5 02P      0.102638
     55 H273       13.2100  -13.4040   22.0810 H         5 02P      0.102638
@<TRIPOS>BOND
     1    1    2 1   
     2    1   29 1   
     3    1   30 1   
     4    1   31 1   
     5    2    3 1   
     6    2    5 1   
     7    2   32 1   
     8    3    4 2   
     9    3   12 am  
    10    5    6 1   
    11    5   33 1   
    12    5   34 1   
    13    6    7 ar  
    14    6    8 ar  
    15    7    9 ar  
    16    7   35 1   
    17    8   10 ar  
    18    8   36 1   
    19    9   11 ar  
    20    9   37 1   
    21   10   11 ar  
    22   10   38 1   
    23   11   39 1   
    24   12   13 1   
    25   12   18 1   
    26   13   14 1   
    27   13   16 1   
    28   13   40 1   
    29   14   15 2   
    30   14   20 am  
    31   16   17 1   
    32   16   41 1   
    33   16   42 1   
    34   17   18 1   
    35   17   43 1   
    36   17   44 1   
    37   18   45 1   
    38   18   46 1   
    39   19   25 1   
    40   20   21 1   
    41   20   47 1   
    42   21   22 1   
    43   21   48 1   
    44   21   49 1   
    45   22   23 1   
    46   22   24 ar  
    47   23   27 2   
    48   23   28 1   
    49   24   25 ar  
    50   24   50 1   
    51   25   26 ar  
    52   26   27 ar  
    53   26   51 1   
    54   27   52 1   
    55   28   53 1   
    56   28   54 1   
    57   28   55 1   
@<TRIPOS>SUBSTRUCTURE
     1 02P         1 TEMP              0 ****  ****    0 ROOT
