@<TRIPOS>MOLECULE
3RLW.H
   60    62     1     0     0
SMALL
No Charge or Current Charge


@<TRIPOS>ATOM
      1 C7         18.7110  -16.8010   26.4490 C.3       1 S28     -0.401383
      2 H71        19.0960  -17.6570   27.0030 H         1 S28      0.179618
      3 H72        18.0940  -16.1890   27.1080 H         1 S28      0.179618
      4 S8         17.7800  -17.3460   25.1710 S.o2      1 S28      1.103065
      5 C6         19.8750  -15.9700   25.9400 C.ar      1 S28      0.122293
      6 C1         19.8480  -14.5840   26.0690 C.ar      1 S28     -0.130755
      7 H1         19.0030  -14.1060   26.5420 H         1 S28      0.139701
      8 C2         20.9000  -13.8120   25.5930 C.ar      1 S28     -0.184276
      9 H2         20.8700  -12.7370   25.6960 H         1 S28      0.159383
     10 C3         21.9930  -14.4230   24.9830 C.ar      1 S28     -0.088412
     11 H3         22.8110  -13.8250   24.6090 H         1 S28      0.143009
     12 C4         22.0230  -15.8040   24.8590 C.ar      1 S28     -0.184276
     13 H4         22.8720  -16.2830   24.3940 H         1 S28      0.159383
     14 C5         20.9670  -16.5760   25.3290 C.ar      1 S28     -0.130755
     15 H5         20.9950  -17.6500   25.2190 H         1 S28      0.139701
     16 O13        18.4830  -18.3050   24.3590 O.2       1 S28     -0.535233
     17 O14        16.5740  -17.9380   25.6790 O.2       1 S28     -0.535233
     18 N9         17.3790  -16.0920   24.2630 N.3       1 S28     -0.692593
     19 H9         17.4610  -15.2660   24.8390 H         1 S28      0.343113
     20 C10        18.1400  -15.8530   23.0590 C.3       1 S28      0.096277
     21 H101       17.9500  -16.6570   22.3480 H         1 S28      0.086305
     22 H102       19.2020  -15.8280   23.3040 H         1 S28      0.086305
     23 C11        17.7420  -14.5380   22.4400 C.2       1 S28      0.485701
     24 O15        16.6830  -14.0100   22.7690 O.2       1 S28     -0.512790
     25 N12        18.5900  -14.0290   21.5540 N.am      1 S28     -0.151812
     26 C16        18.2970  -12.7690   20.8830 C.3       1 S28     -0.066934
     27 H16        18.2880  -11.9310   21.5800 H         1 S28      0.089778
     28 C17        16.9470  -12.8440   20.2280 C.2       1 S28      0.613054
     29 O18        16.5880  -13.8690   19.6520 O.2       1 S28     -0.515391
     30 C21        19.3720  -12.6150   19.8160 C.3       1 S28     -0.002305
     31 H211       19.7690  -11.6000   19.8220 H         1 S28      0.037199
     32 H212       18.9630  -12.8390   18.8310 H         1 S28      0.037199
     33 C22        20.4610  -13.6090   20.1730 C.3       1 S28     -0.024992
     34 H221       21.2960  -13.0920   20.6460 H         1 S28      0.049206
     35 H222       20.8110  -14.1170   19.2740 H         1 S28      0.049206
     36 C23        19.8610  -14.6200   21.1400 C.3       1 S28     -0.048077
     37 H231       19.6970  -15.5760   20.6430 H         1 S28      0.053467
     38 H232       20.5150  -14.7650   22.0000 H         1 S28      0.053467
     39 N19        16.1700  -11.7610   20.3140 N.am      1 S28     -0.555005
     40 H19        16.5300  -10.9610   20.8140 H         1 S28      0.290816
     41 C20        14.8350  -11.6580   19.7330 C.3       1 S28      0.021567
     42 H201       14.6590  -12.5060   19.0710 H         1 S28      0.097997
     43 H202       14.7550  -10.7310   19.1660 H         1 S28      0.097997
     44 C24        13.8100  -11.6620   20.8400 C.ar      1 S28      0.033318
     45 C31        13.3190  -12.8560   21.3510 C.ar      1 S28     -0.112312
     46 H31        13.6710  -13.7960   20.9530 H         1 S28      0.165892
     47 C29        12.3740  -12.8460   22.3740 C.ar      1 S28     -0.136064
     48 H29        12.0010  -13.7770   22.7740 H         1 S28      0.143613
     49 C28        11.9100  -11.6340   22.8810 C.ar      1 S28     -0.097276
     50 C26        10.8970  -11.6020   23.9890 C.2       1 S28      0.704101
     51 N30        10.6540  -10.5180   24.5890 N.3       1 S28     -0.774708
     52 H301        9.9740  -10.4950   25.3350 H         1 S28      0.408203
     53 H302       11.1400   -9.6740   24.3230 H         1 S28      0.408203
     54 N32        10.2840  -12.6530   24.3290 N.3       1 S28     -0.774708
     55 H322       10.4730  -13.5240   23.8540 H         1 S28      0.408203
     56 H321        9.6050  -12.6220   25.0760 H         1 S28      0.408203
     57 C27        12.4040  -10.4450   22.3660 C.ar      1 S28     -0.136064
     58 H27        12.0500   -9.5030   22.7580 H         1 S28      0.143613
     59 C25        13.3500  -10.4560   21.3500 C.ar      1 S28     -0.112312
     60 H25        13.7290   -9.5240   20.9560 H         1 S28      0.165892
@<TRIPOS>BOND
     1    1    2 1   
     2    1    3 1   
     3    1    4 1   
     4    1    5 1   
     5    4   16 2   
     6    4   17 2   
     7    4   18 1   
     8    5    6 ar  
     9    5   14 ar  
    10    6    7 1   
    11    6    8 ar  
    12    8    9 1   
    13    8   10 ar  
    14   10   11 1   
    15   10   12 ar  
    16   12   13 1   
    17   12   14 ar  
    18   14   15 1   
    19   18   19 1   
    20   18   20 1   
    21   20   21 1   
    22   20   22 1   
    23   20   23 1   
    24   23   24 2   
    25   23   25 am  
    26   25   26 1   
    27   25   36 1   
    28   26   27 1   
    29   26   28 1   
    30   26   30 1   
    31   28   29 2   
    32   28   39 am  
    33   30   31 1   
    34   30   32 1   
    35   30   33 1   
    36   33   34 1   
    37   33   35 1   
    38   33   36 1   
    39   36   37 1   
    40   36   38 1   
    41   39   40 1   
    42   39   41 1   
    43   41   42 1   
    44   41   43 1   
    45   41   44 1   
    46   44   45 ar  
    47   44   59 ar  
    48   45   46 1   
    49   45   47 ar  
    50   47   48 1   
    51   47   49 ar  
    52   49   50 1   
    53   49   57 ar  
    54   50   51 2   
    55   50   54 1   
    56   51   52 1   
    57   51   53 1   
    58   54   55 1   
    59   54   56 1   
    60   57   58 1   
    61   57   59 ar  
    62   59   60 1   
@<TRIPOS>SUBSTRUCTURE
     1 S28         1 TEMP              0 ****  ****    0 ROOT
