@<TRIPOS>MOLECULE
3RLY.H
   63    65     1     0     0
SMALL
No Charge or Current Charge


@<TRIPOS>ATOM
      1 C7         14.8440  -15.9480   21.3330 C.3       1 S29     -0.414096
      2 H71        15.6450  -15.4040   20.8330 H         1 S29      0.184803
      3 H72        14.3450  -15.2890   22.0430 H         1 S29      0.184803
      4 S8         15.5110  -17.2430   22.1730 S.o2      1 S29      0.882807
      5 C6         13.8360  -16.3970   20.2930 C.ar      1 S29      0.117225
      6 C1         14.2760  -16.7320   19.0150 C.ar      1 S29     -0.114020
      7 H1         15.3270  -16.6690   18.7750 H         1 S29      0.140082
      8 C2         13.3670  -17.1480   18.0440 C.ar      1 S29     -0.197306
      9 H2         13.7120  -17.4040   17.0530 H         1 S29      0.160838
     10 C3         12.0170  -17.2320   18.3540 C.ar      1 S29     -0.082613
     11 H3         11.3100  -17.5600   17.6060 H         1 S29      0.143351
     12 C4         11.5750  -16.8930   19.6290 C.ar      1 S29     -0.197306
     13 H4         10.5230  -16.9540   19.8670 H         1 S29      0.160838
     14 C5         12.4820  -16.4760   20.5980 C.ar      1 S29     -0.114020
     15 H5         12.1340  -16.2140   21.5860 H         1 S29      0.140082
     16 O13        16.3350  -18.0200   21.2800 O.2       1 S29     -0.480329
     17 O14        14.4690  -18.0100   22.7920 O.2       1 S29     -0.480329
     18 N9         16.4240  -16.6870   23.3810 N.3       1 S29     -0.547613
     19 H9         16.6020  -17.4850   23.9740 H         1 S29      0.333525
     20 C10        17.7130  -16.0290   23.2180 C.3       1 S29      0.163974
     21 H10        18.3040  -16.6620   22.5560 H         1 S29      0.111772
     22 C33        18.3930  -15.8710   24.5810 C.3       1 S29     -0.241467
     23 H331       17.7810  -15.2350   25.2210 H         1 S29      0.087766
     24 H332       19.3740  -15.4160   24.4470 H         1 S29      0.087766
     25 H333       18.5080  -16.8500   25.0460 H         1 S29      0.087766
     26 C11        17.5980  -14.6740   22.5860 C.2       1 S29      0.385528
     27 O15        16.6550  -13.9400   22.8650 O.2       1 S29     -0.515712
     28 N12        18.5400  -14.3170   21.7250 N.am      1 S29     -0.120421
     29 C16        18.4710  -13.0180   21.0670 C.3       1 S29     -0.044751
     30 H16        18.5120  -12.1870   21.7710 H         1 S29      0.076462
     31 C17        17.1700  -12.8970   20.3150 C.2       1 S29      0.613446
     32 O18        16.7150  -13.8320   19.6660 O.2       1 S29     -0.543615
     33 C21        19.6560  -13.0010   20.1060 C.3       1 S29     -0.103147
     34 H211       20.1630  -12.0370   20.1450 H         1 S29      0.074648
     35 H212       19.3210  -13.1940   19.0870 H         1 S29      0.074648
     36 C22        20.5850  -14.1070   20.5770 C.3       1 S29     -0.015225
     37 H221       21.3430  -13.7040   21.2490 H         1 S29      0.046374
     38 H222       21.0700  -14.5830   19.7250 H         1 S29      0.046374
     39 C23        19.7060  -15.1070   21.3110 C.3       1 S29     -0.049336
     40 H231       19.4080  -15.9200   20.6490 H         1 S29      0.062792
     41 H232       20.2250  -15.5160   22.1780 H         1 S29      0.062792
     42 N19        16.5130  -11.7430   20.4120 N.am      1 S29     -0.549138
     43 H19        16.9250  -11.0140   20.9760 H         1 S29      0.336656
     44 C20        15.2360  -11.4580   19.7580 C.3       1 S29     -0.032417
     45 H201       15.0350  -12.2160   19.0010 H         1 S29      0.112531
     46 H202       15.2770  -10.4760   19.2870 H         1 S29      0.112531
     47 C24        14.1410  -11.4770   20.8000 C.ar      1 S29      0.065431
     48 C31        13.4310  -12.6390   21.0600 C.ar      1 S29     -0.118553
     49 H31        13.6570  -13.5320   20.4960 H         1 S29      0.160073
     50 C29        12.4350  -12.6830   22.0300 C.ar      1 S29     -0.125181
     51 H29        11.9020  -13.6040   22.2160 H         1 S29      0.131833
     52 C28        12.1250  -11.5390   22.7610 C.ar      1 S29     -0.085977
     53 C26        11.0580  -11.5370   23.8160 C.2       1 S29      0.640844
     54 N30        10.4210  -12.5900   24.1340 N.3       1 S29     -0.738300
     55 H301        9.7280  -12.5590   24.8680 H         1 S29      0.402660
     56 H302       10.6080  -13.4580   23.6520 H         1 S29      0.402660
     57 N32        10.8000  -10.4030   24.4600 N.3       1 S29     -0.738300
     58 H322       11.2990   -9.5590   24.2170 H         1 S29      0.402660
     59 H321       10.1050  -10.3850   25.1920 H         1 S29      0.402660
     60 C27        12.8370  -10.3800   22.4940 C.ar      1 S29     -0.125181
     61 H27        12.6110   -9.4860   23.0550 H         1 S29      0.131833
     62 C25        13.8350  -10.3340   21.5240 C.ar      1 S29     -0.118553
     63 H25        14.3680   -9.4140   21.3360 H         1 S29      0.160073
@<TRIPOS>BOND
     1    1    2 1   
     2    1    3 1   
     3    1    4 1   
     4    1    5 1   
     5    4   16 2   
     6    4   17 2   
     7    4   18 1   
     8    5    6 ar  
     9    5   14 ar  
    10    6    7 1   
    11    6    8 ar  
    12    8    9 1   
    13    8   10 ar  
    14   10   11 1   
    15   10   12 ar  
    16   12   13 1   
    17   12   14 ar  
    18   14   15 1   
    19   18   19 1   
    20   18   20 1   
    21   20   21 1   
    22   20   22 1   
    23   20   26 1   
    24   22   23 1   
    25   22   24 1   
    26   22   25 1   
    27   26   27 2   
    28   26   28 am  
    29   28   29 1   
    30   28   39 1   
    31   29   30 1   
    32   29   31 1   
    33   29   33 1   
    34   31   32 2   
    35   31   42 am  
    36   33   34 1   
    37   33   35 1   
    38   33   36 1   
    39   36   37 1   
    40   36   38 1   
    41   36   39 1   
    42   39   40 1   
    43   39   41 1   
    44   42   43 1   
    45   42   44 1   
    46   44   45 1   
    47   44   46 1   
    48   44   47 1   
    49   47   48 ar  
    50   47   62 ar  
    51   48   49 1   
    52   48   50 ar  
    53   50   51 1   
    54   50   52 ar  
    55   52   53 1   
    56   52   60 ar  
    57   53   54 2   
    58   53   57 1   
    59   54   55 1   
    60   54   56 1   
    61   57   58 1   
    62   57   59 1   
    63   60   61 1   
    64   60   62 ar  
    65   62   63 1   
@<TRIPOS>SUBSTRUCTURE
     1 S29         1 TEMP              0 ****  ****    0 ROOT
