@<TRIPOS>MOLECULE
3RM0.H
   69    71     1     0     0
SMALL
No Charge or Current Charge


@<TRIPOS>ATOM
      1 C7         14.6960  -15.4590   21.1440 C.3       1 S54     -0.270370
      2 H71        15.4800  -14.8730   20.6640 H         1 S54      0.140172
      3 H72        14.1780  -14.8410   21.8770 H         1 S54      0.140172
      4 S8         15.4070  -16.7610   21.9410 S.o2      1 S54      0.838954
      5 C4         13.7000  -15.8980   20.0870 C.ar      1 S54      0.072547
      6 C5         12.3400  -15.9120   20.3760 C.ar      1 S54     -0.113267
      7 H5         11.9940  -15.6020   21.3510 H         1 S54      0.140004
      8 C6         11.4240  -16.3240   19.4130 C.ar      1 S54     -0.189162
      9 H6         10.3690  -16.3430   19.6450 H         1 S54      0.159563
     10 C1         11.8650  -16.7110   18.1530 C.ar      1 S54     -0.087523
     11 H1         11.1530  -17.0250   17.4040 H         1 S54      0.143573
     12 C2         13.2230  -16.6930   17.8580 C.ar      1 S54     -0.189162
     13 H2         13.5680  -16.9930   16.8790 H         1 S54      0.159563
     14 C3         14.1370  -16.2890   18.8240 C.ar      1 S54     -0.113267
     15 H3         15.1920  -16.2780   18.5940 H         1 S54      0.140004
     16 O22        14.3730  -17.5390   22.5570 O.2       1 S54     -0.488826
     17 O23        16.2150  -17.5320   21.0310 O.2       1 S54     -0.488826
     18 N9         16.3520  -16.1830   23.1130 N.3       1 S54     -0.392179
     19 H9         16.4850  -16.9370   23.7720 H         1 S54      0.287781
     20 C10        17.6790  -15.6510   22.8190 C.3       1 S54      0.011409
     21 H10        18.1170  -16.2170   21.9970 H         1 S54      0.117168
     22 C18        18.6010  -15.8290   24.0190 C.3       1 S54      0.069063
     23 H18        19.5740  -15.4240   23.7410 H         1 S54      0.062428
     24 C19        18.7800  -17.3070   24.3780 C.3       1 S54     -0.228858
     25 H191       17.8160  -17.7320   24.6590 H         1 S54      0.070501
     26 H192       19.4740  -17.3960   25.2130 H         1 S54      0.070501
     27 H193       19.1770  -17.8450   23.5170 H         1 S54      0.070501
     28 C20        18.0690  -15.0730   25.2210 C.3       1 S54     -0.228858
     29 H201       17.0960  -15.4760   25.5020 H         1 S54      0.070501
     30 H202       17.9670  -14.0170   24.9700 H         1 S54      0.070501
     31 H203       18.7620  -15.1830   26.0550 H         1 S54      0.070501
     32 C11        17.5920  -14.2140   22.3500 C.2       1 S54      0.370429
     33 O17        16.6950  -13.4650   22.7320 O.2       1 S54     -0.498377
     34 N12        18.5190  -13.7870   21.4940 N.am      1 S54     -0.120177
     35 C13        18.4580  -12.4320   20.9430 C.3       1 S54     -0.016242
     36 H13        18.5390  -11.6550   21.7030 H         1 S54      0.064643
     37 C24        17.1460  -12.3010   20.2170 C.2       1 S54      0.619930
     38 O33        16.7080  -13.2430   19.5570 O.2       1 S54     -0.541237
     39 C14        19.5990  -12.3500   19.9360 C.3       1 S54     -0.069949
     40 H141       20.1690  -11.4330   20.0820 H         1 S54      0.060242
     41 H142       19.2100  -12.3770   18.9180 H         1 S54      0.060242
     42 C15        20.4700  -13.5610   20.2010 C.3       1 S54     -0.003747
     43 H151       21.3280  -13.2790   20.8110 H         1 S54      0.038063
     44 H152       20.8180  -13.9860   19.2590 H         1 S54      0.038063
     45 C16        19.6100  -14.5720   20.9440 C.3       1 S54     -0.060854
     46 H161       19.2310  -15.3320   20.2610 H         1 S54      0.064873
     47 H162       20.1800  -15.0510   21.7400 H         1 S54      0.064873
     48 N25        16.4830  -11.1570   20.3300 N.am      1 S54     -0.563047
     49 H25        16.8860  -10.4220   20.8930 H         1 S54      0.334098
     50 C26        15.2040  -10.9110   19.6820 C.3       1 S54     -0.035523
     51 H261       15.0060  -11.6910   18.9470 H         1 S54      0.116338
     52 H262       15.2210   -9.9400   19.1870 H         1 S54      0.116338
     53 C27        14.1300  -10.9250   20.7470 C.ar      1 S54      0.051489
     54 C32        13.8690   -9.7940   21.5000 C.ar      1 S54     -0.108182
     55 H32        14.4280   -8.8860   21.3290 H         1 S54      0.159946
     56 C31        12.8840   -9.8350   22.4760 C.ar      1 S54     -0.133885
     57 H31        12.6870   -8.9530   23.0670 H         1 S54      0.140021
     58 C30        12.1480  -10.9870   22.7070 C.ar      1 S54     -0.103609
     59 C34        11.0890  -11.0110   23.7670 C.2       1 S54      0.671466
     60 N35        10.4810  -12.0870   24.0670 N.3       1 S54     -0.744424
     61 H351        9.7750  -12.0840   24.7890 H         1 S54      0.399904
     62 H352       10.7040  -12.9450   23.5830 H         1 S54      0.399904
     63 N36        10.7890   -9.8890   24.4080 N.3       1 S54     -0.744424
     64 H362       11.2680   -9.0310   24.1750 H         1 S54      0.399904
     65 H361       10.0820   -9.8930   25.1290 H         1 S54      0.399904
     66 C29        12.4160  -12.1210   21.9580 C.ar      1 S54     -0.133885
     67 H29        11.8610  -13.0310   22.1350 H         1 S54      0.140021
     68 C28        13.4020  -12.0840   20.9770 C.ar      1 S54     -0.108182
     69 H28        13.6030  -12.9670   20.3880 H         1 S54      0.159946
@<TRIPOS>BOND
     1    1    2 1   
     2    1    3 1   
     3    1    4 1   
     4    1    5 1   
     5    4   16 2   
     6    4   17 2   
     7    4   18 1   
     8    5    6 ar  
     9    5   14 ar  
    10    6    7 1   
    11    6    8 ar  
    12    8    9 1   
    13    8   10 ar  
    14   10   11 1   
    15   10   12 ar  
    16   12   13 1   
    17   12   14 ar  
    18   14   15 1   
    19   18   19 1   
    20   18   20 1   
    21   20   21 1   
    22   20   22 1   
    23   20   32 1   
    24   22   23 1   
    25   22   24 1   
    26   22   28 1   
    27   24   25 1   
    28   24   26 1   
    29   24   27 1   
    30   28   29 1   
    31   28   30 1   
    32   28   31 1   
    33   32   33 2   
    34   32   34 am  
    35   34   35 1   
    36   34   45 1   
    37   35   36 1   
    38   35   37 1   
    39   35   39 1   
    40   37   38 2   
    41   37   48 am  
    42   39   40 1   
    43   39   41 1   
    44   39   42 1   
    45   42   43 1   
    46   42   44 1   
    47   42   45 1   
    48   45   46 1   
    49   45   47 1   
    50   48   49 1   
    51   48   50 1   
    52   50   51 1   
    53   50   52 1   
    54   50   53 1   
    55   53   54 ar  
    56   53   68 ar  
    57   54   55 1   
    58   54   56 ar  
    59   56   57 1   
    60   56   58 ar  
    61   58   59 1   
    62   58   66 ar  
    63   59   60 2   
    64   59   63 1   
    65   60   61 1   
    66   60   62 1   
    67   63   64 1   
    68   63   65 1   
    69   66   67 1   
    70   66   68 ar  
    71   68   69 1   
@<TRIPOS>SUBSTRUCTURE
     1 S54         1 TEMP              0 ****  ****    0 ROOT
