@<TRIPOS>MOLECULE
3RM2.H
   79    82     1     0     0
SMALL
No Charge or Current Charge


@<TRIPOS>ATOM
      1 C7         14.6630  -15.1830   21.1480 C.3       1 S00     -0.136791
      2 H71        15.4210  -14.5900   20.6360 H         1 S00      0.117241
      3 H72        14.1480  -14.5600   21.8800 H         1 S00      0.117241
      4 S8         15.4190  -16.4520   21.9520 S.o2      1 S00      0.845992
      5 C4         13.6560  -15.6750   20.1290 C.ar      1 S00      0.020913
      6 C5         12.3020  -15.6870   20.4450 C.ar      1 S00     -0.098351
      7 H5         11.9690  -15.3440   21.4130 H         1 S00      0.130581
      8 C6         11.3750  -16.1440   19.5080 C.ar      1 S00     -0.189932
      9 H6         10.3240  -16.1590   19.7570 H         1 S00      0.156500
     10 C1         11.7940  -16.5820   18.2520 C.ar      1 S00     -0.089292
     11 H1         11.0720  -16.9360   17.5310 H         1 S00      0.146157
     12 C2         13.1480  -16.5600   17.9350 C.ar      1 S00     -0.189932
     13 H2         13.4810  -16.8950   16.9640 H         1 S00      0.156500
     14 C3         14.0730  -16.1060   18.8700 C.ar      1 S00     -0.098351
     15 H3         15.1230  -16.0870   18.6190 H         1 S00      0.130581
     16 O12        16.3110  -17.1490   21.0800 O.2       1 S00     -0.477220
     17 O13        14.4080  -17.2980   22.5290 O.2       1 S00     -0.477220
     18 C15        19.5630  -14.4100   24.4290 C.3       1 S00      0.037010
     19 H15        19.5750  -13.5650   23.7410 H         1 S00      0.006621
     20 C16        20.6010  -15.4370   23.9910 C.3       1 S00     -0.041115
     21 H161       20.3710  -15.7730   22.9800 H         1 S00      0.021293
     22 H162       20.5750  -16.2880   24.6710 H         1 S00      0.021293
     23 C17        21.9960  -14.8170   24.0120 C.3       1 S00     -0.011055
     24 H171       22.0390  -14.0240   23.2650 H         1 S00      0.005485
     25 H172       22.7260  -15.5880   23.7650 H         1 S00      0.005485
     26 C18        22.3460  -14.2270   25.3760 C.3       1 S00      0.015637
     27 H181       23.2970  -13.6990   25.3000 H         1 S00      0.011925
     28 H182       22.4370  -15.0370   26.0990 H         1 S00      0.011925
     29 C19        21.2770  -13.2530   25.8570 C.3       1 S00     -0.011055
     30 H191       21.2670  -12.3810   25.2030 H         1 S00      0.005485
     31 H192       21.5090  -12.9410   26.8750 H         1 S00      0.005485
     32 C20        19.9020  -13.9110   25.8350 C.3       1 S00     -0.041115
     33 H201       19.8980  -14.7550   26.5250 H         1 S00      0.021293
     34 H202       19.1520  -13.1840   26.1470 H         1 S00      0.021293
     35 N9         16.2880  -15.8500   23.1620 N.3       1 S00     -0.544542
     36 H9         16.4330  -16.6170   23.8030 H         1 S00      0.306648
     37 C10        17.5880  -15.2250   22.9950 C.3       1 S00      0.030762
     38 H10        18.2270  -15.8460   22.3670 H         1 S00      0.112086
     39 C14        18.1670  -15.0320   24.4030 C.3       1 S00     -0.117410
     40 H141       17.4940  -14.3830   24.9630 H         1 S00      0.077554
     41 H142       18.2190  -16.0070   24.8870 H         1 S00      0.077554
     42 C11        17.4520  -13.8710   22.3380 C.2       1 S00      0.282182
     43 O31        16.5580  -13.1020   22.6820 O.2       1 S00     -0.421919
     44 N21        18.3250  -13.5250   21.3860 N.am      1 S00     -0.026952
     45 C22        18.2010  -12.2080   20.7480 C.3       1 S00     -0.109976
     46 H22        18.2480  -11.4020   21.4810 H         1 S00      0.075869
     47 C26        16.8790  -12.0970   20.0460 C.2       1 S00      0.722147
     48 O30        16.4410  -13.0330   19.3920 O.2       1 S00     -0.566774
     49 C23        19.3460  -12.1090   19.7500 C.3       1 S00     -0.067752
     50 H231       20.0370  -11.3210   20.0500 H         1 S00      0.068866
     51 H232       18.9580  -11.8920   18.7550 H         1 S00      0.068866
     52 C24        20.0510  -13.4490   19.7530 C.3       1 S00     -0.036435
     53 H241       21.1120  -13.3060   19.9560 H         1 S00      0.038245
     54 H242       19.9280  -13.9320   18.7840 H         1 S00      0.038245
     55 C25        19.4310  -14.3140   20.8410 C.3       1 S00     -0.063851
     56 H251       19.0610  -15.2490   20.4200 H         1 S00      0.071772
     57 H252       20.1630  -14.5310   21.6190 H         1 S00      0.071772
     58 N27        16.2000  -10.9660   20.1790 N.am      1 S00     -0.606159
     59 H27        16.6110  -10.2260   20.7300 H         1 S00      0.324739
     60 C28        14.9000  -10.7320   19.5780 C.3       1 S00     -0.004069
     61 H281       14.6780  -11.5160   18.8540 H         1 S00      0.109351
     62 H282       14.8890   -9.7630   19.0790 H         1 S00      0.109351
     63 C29        13.8760  -10.7510   20.6910 C.ar      1 S00      0.043130
     64 C33        13.1050  -11.8820   20.9070 C.ar      1 S00     -0.085925
     65 H33        13.2340  -12.7460   20.2720 H         1 S00      0.143884
     66 C34        12.1680  -11.9160   21.9310 C.ar      1 S00     -0.154408
     67 H34        11.5730  -12.8040   22.0870 H         1 S00      0.151849
     68 C35        11.9940  -10.8120   22.7550 C.ar      1 S00     -0.139127
     69 C37        10.9760  -10.8260   23.8540 C.2       1 S00      0.768891
     70 N38        10.3460  -11.8870   24.1570 N.3       1 S00     -0.827054
     71 H381        9.6520  -11.8700   24.8900 H         1 S00      0.424935
     72 H382       10.5400  -12.7470   23.6650 H         1 S00      0.424935
     73 N39        10.7260   -9.6960   24.4960 N.3       1 S00     -0.827054
     74 H392       11.2290   -8.8550   24.2520 H         1 S00      0.424935
     75 H391       10.0320   -9.6750   25.2300 H         1 S00      0.424935
     76 C36        12.7720   -9.6840   22.5360 C.ar      1 S00     -0.154408
     77 H36        12.6480   -8.8220   23.1750 H         1 S00      0.151849
     78 C32        13.7060   -9.6440   21.5110 C.ar      1 S00     -0.085925
     79 H32        14.2980   -8.7550   21.3520 H         1 S00      0.143884
@<TRIPOS>BOND
     1    1    2 1   
     2    1    3 1   
     3    1    4 1   
     4    1    5 1   
     5    4   16 2   
     6    4   17 2   
     7    4   35 1   
     8    5    6 ar  
     9    5   14 ar  
    10    6    7 1   
    11    6    8 ar  
    12    8    9 1   
    13    8   10 ar  
    14   10   11 1   
    15   10   12 ar  
    16   12   13 1   
    17   12   14 ar  
    18   14   15 1   
    19   18   19 1   
    20   18   20 1   
    21   18   32 1   
    22   18   39 1   
    23   20   21 1   
    24   20   22 1   
    25   20   23 1   
    26   23   24 1   
    27   23   25 1   
    28   23   26 1   
    29   26   27 1   
    30   26   28 1   
    31   26   29 1   
    32   29   30 1   
    33   29   31 1   
    34   29   32 1   
    35   32   33 1   
    36   32   34 1   
    37   35   36 1   
    38   35   37 1   
    39   37   38 1   
    40   37   39 1   
    41   37   42 1   
    42   39   40 1   
    43   39   41 1   
    44   42   43 2   
    45   42   44 am  
    46   44   45 1   
    47   44   55 1   
    48   45   46 1   
    49   45   47 1   
    50   45   49 1   
    51   47   48 2   
    52   47   58 am  
    53   49   50 1   
    54   49   51 1   
    55   49   52 1   
    56   52   53 1   
    57   52   54 1   
    58   52   55 1   
    59   55   56 1   
    60   55   57 1   
    61   58   59 1   
    62   58   60 1   
    63   60   61 1   
    64   60   62 1   
    65   60   63 1   
    66   63   64 ar  
    67   63   78 ar  
    68   64   65 1   
    69   64   66 ar  
    70   66   67 1   
    71   66   68 ar  
    72   68   69 1   
    73   68   76 ar  
    74   69   70 2   
    75   69   73 1   
    76   70   71 1   
    77   70   72 1   
    78   73   74 1   
    79   73   75 1   
    80   76   77 1   
    81   76   78 ar  
    82   78   79 1   
@<TRIPOS>SUBSTRUCTURE
     1 S00         1 TEMP              0 ****  ****    0 ROOT
