@<TRIPOS>MOLECULE
3RML.H
   60    62     1     0     0
SMALL
No Charge or Current Charge


@<TRIPOS>ATOM
      1 C7         18.4540  -15.4600   26.2810 C.3       1 M31     -0.215563
      2 H71        18.7920  -16.3300   26.8440 H         1 M31      0.148430
      3 H72        17.8590  -14.8170   26.9290 H         1 M31      0.148430
      4 S8         17.4900  -15.9820   25.0140 S.o2      1 M31      0.994494
      5 C6         19.6720  -14.6830   25.8110 C.ar      1 M31      0.045965
      6 C1         19.7270  -13.2970   25.9970 C.ar      1 M31     -0.122614
      7 H1         18.9040  -12.7890   26.4790 H         1 M31      0.135552
      8 C2         20.8320  -12.5660   25.5670 C.ar      1 M31     -0.167624
      9 H2         20.8670  -11.4970   25.7180 H         1 M31      0.157217
     10 C30        21.8900  -13.2170   24.9420 C.ar      1 M31     -0.088172
     11 H30        22.7460  -12.6550   24.5980 H         1 M31      0.140845
     12 C4         21.8410  -14.5980   24.7610 C.ar      1 M31     -0.167624
     13 H4         22.6690  -15.1050   24.2880 H         1 M31      0.157217
     14 C5         20.7350  -15.3290   25.1850 C.ar      1 M31     -0.122614
     15 H5         20.7010  -16.3970   25.0290 H         1 M31      0.135552
     16 O13        18.1790  -16.8840   24.1400 O.2       1 M31     -0.530214
     17 O14        16.3180  -16.6130   25.5430 O.2       1 M31     -0.530214
     18 N9         17.0310  -14.6910   24.1780 N.3       1 M31     -0.711808
     19 H9         17.1320  -13.8890   24.7840 H         1 M31      0.407496
     20 C10        17.7310  -14.3930   22.9520 C.3       1 M31      0.068494
     21 H101       17.6110  -15.2230   22.2560 H         1 M31      0.102445
     22 H102       18.7900  -14.2480   23.1660 H         1 M31      0.102445
     23 C11        17.1650  -13.1320   22.3330 C.2       1 M31      0.474406
     24 O15        16.1420  -12.6410   22.7820 O.2       1 M31     -0.609693
     25 N12        17.8660  -12.6300   21.3300 N.am      1 M31     -0.076929
     26 C16        17.4290  -11.4220   20.6190 C.3       1 M31     -0.051592
     27 H16        17.6030  -10.5270   21.2160 H         1 M31      0.089127
     28 C17        15.9520  -11.4020   20.3240 C.2       1 M31      0.512661
     29 O18        15.3560  -12.3700   19.8520 O.2       1 M31     -0.512101
     30 C21        18.2200  -11.4810   19.3130 C.3       1 M31     -0.085996
     31 H211       18.4510  -10.4770   18.9570 H         1 M31      0.067440
     32 H212       17.6600  -12.0180   18.5470 H         1 M31      0.067440
     33 C22        19.4970  -12.2330   19.6730 C.3       1 M31     -0.002545
     34 H221       20.2570  -11.5430   20.0400 H         1 M31      0.043295
     35 H222       19.8820  -12.7700   18.8060 H         1 M31      0.043295
     36 C23        19.0890  -13.2070   20.7650 C.3       1 M31     -0.030891
     37 H231       18.8920  -14.1940   20.3470 H         1 M31      0.053309
     38 H232       19.8670  -13.2820   21.5250 H         1 M31      0.053309
     39 N19        15.3040  -10.2710   20.6150 N.am      1 M31     -0.433068
     40 H19        15.8240   -9.5070   21.0220 H         1 M31      0.289865
     41 C20        13.8860  -10.0940   20.3710 C.3       1 M31     -0.015340
     42 H201       13.5480  -10.9070   19.7290 H         1 M31      0.105510
     43 H202       13.7460   -9.1430   19.8570 H         1 M31      0.105510
     44 C24        13.0290  -10.0880   21.6140 C.ar      1 M31     -0.018722
     45 C25        12.2580  -11.1810   21.9800 C.ar      1 M31     -0.020763
     46 C26        12.2680  -12.4590   21.1600 C.3       1 M31      0.014446
     47 H261       12.6970  -12.2600   20.1780 H         1 M31      0.103627
     48 H262       11.2480  -12.8270   21.0430 H         1 M31      0.103627
     49 N32        13.0750  -13.4620   21.8540 N.4       1 M31     -0.192482
     50 H323       12.6770  -13.6430   22.7650 H         1 M31      0.266903
     51 H321       14.0190  -13.1190   21.9610 H         1 M31      0.266903
     52 H322       13.0860  -14.3160   21.3160 H         1 M31      0.266903
     53 C27        11.4660  -11.1450   23.1200 C.ar      1 M31     -0.222687
     54 H27        10.8860  -12.0110   23.4010 H         1 M31      0.161805
     55 C28        11.4190   -9.9940   23.9000 C.ar      1 M31     -0.018285
     56 H28        10.7910   -9.9430   24.7770 H         1 M31      0.144240
     57 C29        12.1990   -8.9160   23.5210 C.ar      1 M31     -0.047493
     58 Cl3        12.1880   -7.4370   24.5200 Cl        1 M31     -0.058302
     59 C31        13.0030   -8.9410   22.3970 C.ar      1 M31     -0.056492
     60 H31        13.6020   -8.0820   22.1320 H         1 M31      0.131625
@<TRIPOS>BOND
     1    1    2 1   
     2    1    3 1   
     3    1    4 1   
     4    1    5 1   
     5    4   16 2   
     6    4   17 2   
     7    4   18 1   
     8    5    6 ar  
     9    5   14 ar  
    10    6    7 1   
    11    6    8 ar  
    12    8    9 1   
    13    8   10 ar  
    14   10   11 1   
    15   10   12 ar  
    16   12   13 1   
    17   12   14 ar  
    18   14   15 1   
    19   18   19 1   
    20   18   20 1   
    21   20   21 1   
    22   20   22 1   
    23   20   23 1   
    24   23   24 2   
    25   23   25 am  
    26   25   26 1   
    27   25   36 1   
    28   26   27 1   
    29   26   28 1   
    30   26   30 1   
    31   28   29 2   
    32   28   39 am  
    33   30   31 1   
    34   30   32 1   
    35   30   33 1   
    36   33   34 1   
    37   33   35 1   
    38   33   36 1   
    39   36   37 1   
    40   36   38 1   
    41   39   40 1   
    42   39   41 1   
    43   41   42 1   
    44   41   43 1   
    45   41   44 1   
    46   44   45 ar  
    47   44   59 ar  
    48   45   46 1   
    49   45   53 ar  
    50   46   47 1   
    51   46   48 1   
    52   46   49 1   
    53   49   50 1   
    54   49   51 1   
    55   49   52 1   
    56   53   54 1   
    57   53   55 ar  
    58   55   56 1   
    59   55   57 ar  
    60   57   58 1   
    61   57   59 ar  
    62   59   60 1   
@<TRIPOS>SUBSTRUCTURE
     1 M31         1 TEMP              0 ****  ****    0 ROOT
