@<TRIPOS>MOLECULE
3RMM.H
   63    65     1     0     0
SMALL
No Charge or Current Charge


@<TRIPOS>ATOM
      1 C7         16.4570  -17.9110   22.5660 C.3       1 M32     -0.293022
      2 H71        17.5410  -17.8730   22.4610 H         1 M32      0.173328
      3 H72        16.0440  -18.6010   21.8300 H         1 M32      0.173328
      4 S8         15.8280  -16.3830   22.2960 S.o2      1 M32      0.956048
      5 C6         16.1130  -18.4060   23.9530 C.ar      1 M32      0.059788
      6 C1         17.0460  -18.2740   24.9740 C.ar      1 M32     -0.110290
      7 H1         18.0060  -17.8230   24.7690 H         1 M32      0.138268
      8 C2         16.7520  -18.7190   26.2570 C.ar      1 M32     -0.182428
      9 H2         17.4800  -18.6130   27.0480 H         1 M32      0.157709
     10 C30        15.5170  -19.3010   26.5180 C.ar      1 M32     -0.083288
     11 H30        15.2830  -19.6470   27.5140 H         1 M32      0.141750
     12 C4         14.5840  -19.4370   25.4970 C.ar      1 M32     -0.182428
     13 H4         13.6260  -19.8920   25.7010 H         1 M32      0.157709
     14 C5         14.8780  -18.9890   24.2130 C.ar      1 M32     -0.110290
     15 H5         14.1500  -19.0940   23.4220 H         1 M32      0.138268
     16 O13        16.2270  -15.9620   20.9850 O.2       1 M32     -0.507987
     17 O14        14.3950  -16.4250   22.3410 O.2       1 M32     -0.507987
     18 N9         16.4070  -15.3860   23.4130 N.3       1 M32     -0.720814
     19 H9         16.6360  -15.9560   24.2150 H         1 M32      0.415535
     20 C10        17.5650  -14.5610   23.1530 C.3       1 M32      0.150868
     21 H10        18.2410  -15.1090   22.4960 H         1 M32      0.117949
     22 C33        18.2540  -14.2310   24.4740 C.3       1 M32     -0.199970
     23 H331       17.5640  -13.6840   25.1170 H         1 M32      0.082268
     24 H332       19.1350  -13.6180   24.2810 H         1 M32      0.082268
     25 H333       18.5550  -15.1550   24.9680 H         1 M32      0.082268
     26 C11        17.1650  -13.2780   22.4820 C.2       1 M32      0.386161
     27 O15        16.1420  -12.7100   22.8480 O.2       1 M32     -0.563853
     28 N12        17.9600  -12.8210   21.5200 N.am      1 M32     -0.034220
     29 C16        17.6340  -11.5760   20.8200 C.3       1 M32     -0.068676
     30 H16        17.8040  -10.7040   21.4510 H         1 M32      0.105261
     31 C17        16.1800  -11.4710   20.4460 C.2       1 M32      0.416268
     32 O18        15.5700  -12.4050   19.9360 O.2       1 M32     -0.490059
     33 C21        18.5310  -11.6090   19.5850 C.3       1 M32     -0.096178
     34 H211       18.8510  -10.6020   19.3170 H         1 M32      0.076510
     35 H212       18.0060  -12.0600   18.7430 H         1 M32      0.076510
     36 C22        19.7270  -12.4600   19.9880 C.3       1 M32     -0.015873
     37 H221       20.5070  -11.8390   20.4290 H         1 M32      0.050813
     38 H222       20.1290  -12.9890   19.1240 H         1 M32      0.050813
     39 C23        19.1870  -13.4460   21.0130 C.3       1 M32     -0.042423
     40 H231       18.9650  -14.4050   20.5440 H         1 M32      0.059764
     41 H232       19.9050  -13.5940   21.8200 H         1 M32      0.059764
     42 N19        15.5690  -10.3130   20.7280 N.am      1 M32     -0.334964
     43 H19        16.0920   -9.5780   21.1820 H         1 M32      0.241515
     44 C20        14.1680  -10.0880   20.3950 C.3       1 M32     -0.002656
     45 H201       13.8420  -10.8780   19.7180 H         1 M32      0.099663
     46 H202       14.0820   -9.1230   19.8960 H         1 M32      0.099663
     47 C24        13.2600  -10.0860   21.6010 C.ar      1 M32     -0.002378
     48 C25        12.4690  -11.1810   21.8970 C.ar      1 M32     -0.006512
     49 C26        12.5190  -12.4260   21.0380 C.3       1 M32      0.007336
     50 H261       13.0300  -12.2040   20.1010 H         1 M32      0.101866
     51 H262       11.5050  -12.7670   20.8270 H         1 M32      0.101866
     52 N32        13.2470  -13.4680   21.7610 N.4       1 M32     -0.192004
     53 H323       12.7730  -13.6690   22.6300 H         1 M32      0.260651
     54 H321       14.1860  -13.1500   21.9550 H         1 M32      0.260651
     55 H322       13.2850  -14.3050   21.1970 H         1 M32      0.260651
     56 C27        11.6200  -11.1670   22.9990 C.ar      1 M32     -0.241439
     57 H27        11.0150  -12.0320   23.2270 H         1 M32      0.163788
     58 C28        11.5520  -10.0350   23.8080 C.ar      1 M32     -0.025832
     59 H28        10.8860  -10.0060   24.6570 H         1 M32      0.144843
     60 C29        12.3580   -8.9430   23.5020 C.ar      1 M32     -0.028630
     61 Cl3        12.3010   -7.4900   24.5400 Cl        1 M32     -0.062960
     62 C31        13.2120   -8.9540   22.4070 C.ar      1 M32     -0.084418
     63 H31        13.8290   -8.0960   22.1850 H         1 M32      0.139867
@<TRIPOS>BOND
     1    1    2 1   
     2    1    3 1   
     3    1    4 1   
     4    1    5 1   
     5    4   16 2   
     6    4   17 2   
     7    4   18 1   
     8    5    6 ar  
     9    5   14 ar  
    10    6    7 1   
    11    6    8 ar  
    12    8    9 1   
    13    8   10 ar  
    14   10   11 1   
    15   10   12 ar  
    16   12   13 1   
    17   12   14 ar  
    18   14   15 1   
    19   18   19 1   
    20   18   20 1   
    21   20   21 1   
    22   20   22 1   
    23   20   26 1   
    24   22   23 1   
    25   22   24 1   
    26   22   25 1   
    27   26   27 2   
    28   26   28 am  
    29   28   29 1   
    30   28   39 1   
    31   29   30 1   
    32   29   31 1   
    33   29   33 1   
    34   31   32 2   
    35   31   42 am  
    36   33   34 1   
    37   33   35 1   
    38   33   36 1   
    39   36   37 1   
    40   36   38 1   
    41   36   39 1   
    42   39   40 1   
    43   39   41 1   
    44   42   43 1   
    45   42   44 1   
    46   44   45 1   
    47   44   46 1   
    48   44   47 1   
    49   47   48 ar  
    50   47   62 ar  
    51   48   49 1   
    52   48   56 ar  
    53   49   50 1   
    54   49   51 1   
    55   49   52 1   
    56   52   53 1   
    57   52   54 1   
    58   52   55 1   
    59   56   57 1   
    60   56   58 ar  
    61   58   59 1   
    62   58   60 ar  
    63   60   61 1   
    64   60   62 ar  
    65   62   63 1   
@<TRIPOS>SUBSTRUCTURE
     1 M32         1 TEMP              0 ****  ****    0 ROOT
