@<TRIPOS>MOLECULE
3RMN.H
   69    71     1     0     0
SMALL
No Charge or Current Charge


@<TRIPOS>ATOM
      1 C7         15.9430  -18.3740   22.0610 C.3       1 M41     -0.178647
      2 H71        17.0150  -18.4160   22.2540 H         1 M41      0.133091
      3 H72        15.7190  -18.9060   21.1370 H         1 M41      0.133091
      4 S8         15.4800  -16.7750   21.8960 S.o2      1 M41      1.013256
      5 C4         15.2070  -19.0410   23.2070 C.ar      1 M41      0.034369
      6 C5         13.9020  -19.5030   23.0480 C.ar      1 M41     -0.104207
      7 H5         13.4020  -19.3910   22.0980 H         1 M41      0.138782
      8 C6         13.2420  -20.1100   24.1150 C.ar      1 M41     -0.190033
      9 H6         12.2300  -20.4660   23.9930 H         1 M41      0.158598
     10 C1         13.8890  -20.2570   25.3380 C.ar      1 M41     -0.077420
     11 H1         13.3780  -20.7280   26.1650 H         1 M41      0.148401
     12 C2         15.1920  -19.7990   25.4990 C.ar      1 M41     -0.190033
     13 H2         15.6920  -19.9130   26.4500 H         1 M41      0.158598
     14 C33        15.8490  -19.1950   24.4340 C.ar      1 M41     -0.104207
     15 H33        16.8630  -18.8430   24.5580 H         1 M41      0.138782
     16 O12        15.9600  -16.2990   20.6350 O.2       1 M41     -0.568396
     17 O13        14.0530  -16.7060   22.0120 O.2       1 M41     -0.568396
     18 N9         16.1400  -15.9330   23.1030 N.3       1 M41     -0.677773
     19 H9         16.4210  -16.6150   23.7930 H         1 M41      0.395553
     20 C10        17.2710  -15.0500   22.9380 C.3       1 M41     -0.067040
     21 H10        17.9970  -15.5550   22.3010 H         1 M41      0.168353
     22 C14        17.8090  -14.7230   24.3340 C.3       1 M41      0.123211
     23 H14        17.0680  -14.0790   24.8060 H         1 M41      0.032620
     24 C15        17.9440  -15.9620   25.2200 C.3       1 M41     -0.141051
     25 H151       18.6790  -16.6400   24.7860 H         1 M41      0.050435
     26 H152       16.9800  -16.4660   25.2890 H         1 M41      0.050435
     27 H153       18.2700  -15.6630   26.2160 H         1 M41      0.050435
     28 C16        19.1250  -13.9580   24.2570 C.3       1 M41     -0.141051
     29 H161       19.8830  -14.5850   23.7870 H         1 M41      0.050435
     30 H162       19.4490  -13.6900   25.2630 H         1 M41      0.050435
     31 H163       18.9850  -13.0530   23.6670 H         1 M41      0.050435
     32 C11        16.9030  -13.7430   22.2860 C.2       1 M41      0.392889
     33 O22        15.9620  -13.0980   22.7230 O.2       1 M41     -0.574305
     34 N17        17.6400  -13.3300   21.2570 N.am      1 M41     -0.008224
     35 C18        17.3360  -12.0540   20.5990 C.3       1 M41     -0.004491
     36 H18        17.5860  -11.2090   21.2410 H         1 M41      0.118858
     37 C23        15.8740  -11.8940   20.3000 C.2       1 M41      0.300199
     38 O32        15.2480  -12.8060   19.7810 O.2       1 M41     -0.523169
     39 C19        18.1530  -12.0870   19.3080 C.3       1 M41     -0.168388
     40 H191       18.5840  -11.1060   19.1070 H         1 M41      0.101337
     41 H192       17.5240  -12.3860   18.4690 H         1 M41      0.101337
     42 C20        19.2530  -13.1120   19.5360 C.3       1 M41      0.022834
     43 H201       20.1800  -12.6110   19.8150 H         1 M41      0.040013
     44 H202       19.4140  -13.6970   18.6300 H         1 M41      0.040013
     45 C21        18.7860  -14.0190   20.6690 C.3       1 M41     -0.143560
     46 H211       18.4900  -14.9940   20.2820 H         1 M41      0.077753
     47 H212       19.5770  -14.1470   21.4080 H         1 M41      0.077753
     48 N24        15.2800  -10.7410   20.6250 N.am      1 M41     -0.065969
     49 H24        15.8280  -10.0180   21.0680 H         1 M41      0.206572
     50 C25        13.8650  -10.4930   20.3600 C.3       1 M41     -0.110402
     51 H251       13.5000  -11.2690   19.6870 H         1 M41      0.111831
     52 H252       13.7710   -9.5200   19.8770 H         1 M41      0.111831
     53 C26        12.9960  -10.4940   21.6100 C.ar      1 M41     -0.023308
     54 C27        12.2070  -11.5940   21.9240 C.ar      1 M41     -0.013685
     55 C34        12.2280  -12.8230   21.0420 C.3       1 M41     -0.001100
     56 H341       12.6600  -12.5630   20.0760 H         1 M41      0.103932
     57 H342       11.2080  -13.1790   20.8990 H         1 M41      0.103932
     58 N35        13.0210  -13.8790   21.6510 N.4       1 M41     -0.166101
     59 H353       12.6210  -14.1280   22.5440 H         1 M41      0.260956
     60 H351       13.9680  -13.5540   21.7850 H         1 M41      0.260956
     61 H352       13.0250  -14.6880   21.0470 H         1 M41      0.260956
     62 C28        11.4030  -11.5850   23.0580 C.ar      1 M41     -0.209196
     63 H28        10.8080  -12.4520   23.3050 H         1 M41      0.164745
     64 C29        11.3640  -10.4600   23.8750 C.ar      1 M41     -0.044154
     65 H29        10.7320  -10.4430   24.7500 H         1 M41      0.144062
     66 C30        12.1490   -9.3560   23.5520 C.ar      1 M41     -0.010218
     67 Cl3        12.1250   -7.9020   24.6060 Cl        1 M41     -0.069098
     68 C31        12.9630   -9.3740   22.4300 C.ar      1 M41     -0.073136
     69 H31        13.5730   -8.5150   22.1930 H         1 M41      0.134684
@<TRIPOS>BOND
     1    1    2 1   
     2    1    3 1   
     3    1    4 1   
     4    1    5 1   
     5    4   16 2   
     6    4   17 2   
     7    4   18 1   
     8    5    6 ar  
     9    5   14 ar  
    10    6    7 1   
    11    6    8 ar  
    12    8    9 1   
    13    8   10 ar  
    14   10   11 1   
    15   10   12 ar  
    16   12   13 1   
    17   12   14 ar  
    18   14   15 1   
    19   18   19 1   
    20   18   20 1   
    21   20   21 1   
    22   20   22 1   
    23   20   32 1   
    24   22   23 1   
    25   22   24 1   
    26   22   28 1   
    27   24   25 1   
    28   24   26 1   
    29   24   27 1   
    30   28   29 1   
    31   28   30 1   
    32   28   31 1   
    33   32   33 2   
    34   32   34 am  
    35   34   35 1   
    36   34   45 1   
    37   35   36 1   
    38   35   37 1   
    39   35   39 1   
    40   37   38 2   
    41   37   48 am  
    42   39   40 1   
    43   39   41 1   
    44   39   42 1   
    45   42   43 1   
    46   42   44 1   
    47   42   45 1   
    48   45   46 1   
    49   45   47 1   
    50   48   49 1   
    51   48   50 1   
    52   50   51 1   
    53   50   52 1   
    54   50   53 1   
    55   53   54 ar  
    56   53   68 ar  
    57   54   55 1   
    58   54   62 ar  
    59   55   56 1   
    60   55   57 1   
    61   55   58 1   
    62   58   59 1   
    63   58   60 1   
    64   58   61 1   
    65   62   63 1   
    66   62   64 ar  
    67   64   65 1   
    68   64   66 ar  
    69   66   67 1   
    70   66   68 ar  
    71   68   69 1   
@<TRIPOS>SUBSTRUCTURE
     1 M41         1 TEMP              0 ****  ****    0 ROOT
