@<TRIPOS>MOLECULE
3RMO.H
   79    82     1     0     0
SMALL
No Charge or Current Charge


@<TRIPOS>ATOM
      1 C7         15.9690  -17.9080   22.0250 C.3       1 S04     -0.150962
      2 H71        17.0550  -17.9410   22.1170 H         1 S04      0.125888
      3 H72        15.6640  -18.4480   21.1290 H         1 S04      0.125888
      4 S8         15.4670  -16.3170   21.9150 S.o2      1 S04      0.821861
      5 C6         15.3390  -18.5500   23.2410 C.ar      1 S04      0.028171
      6 C1         14.0790  -19.1350   23.1440 C.ar      1 S04     -0.117708
      7 H1         13.5550  -19.1380   22.2000 H         1 S04      0.138740
      8 C2         13.4960  -19.7160   24.2670 C.ar      1 S04     -0.165875
      9 H2         12.5220  -20.1760   24.1920 H         1 S04      0.154724
     10 C32        14.1670  -19.7050   25.4860 C.ar      1 S04     -0.083258
     11 H32        13.7110  -20.1510   26.3580 H         1 S04      0.141919
     12 C4         15.4240  -19.1200   25.5820 C.ar      1 S04     -0.165875
     13 H4         15.9460  -19.1150   26.5270 H         1 S04      0.154724
     14 C5         16.0100  -18.5410   24.4600 C.ar      1 S04     -0.117708
     15 H5         16.9860  -18.0850   24.5360 H         1 S04      0.138740
     16 O15        15.9490  -15.7870   20.6720 O.2       1 S04     -0.518658
     17 O16        14.0350  -16.2280   21.9800 O.2       1 S04     -0.518658
     18 C12        19.2540  -13.8220   24.4350 C.3       1 S04     -0.004292
     19 H12        19.1810  -12.9290   23.8150 H         1 S04      0.041851
     20 C35        19.5720  -13.4300   25.8770 C.3       1 S04     -0.033682
     21 H351       19.6390  -14.3320   26.4860 H         1 S04      0.000919
     22 H352       18.7740  -12.7930   26.2580 H         1 S04      0.000919
     23 C36        20.8930  -12.6760   25.9530 C.3       1 S04     -0.015574
     24 H361       21.1280  -12.4750   26.9980 H         1 S04      0.019808
     25 H362       20.7960  -11.7330   25.4150 H         1 S04      0.019808
     26 C37        22.0250  -13.4870   25.3350 C.3       1 S04     -0.005354
     27 H371       22.2090  -14.3650   25.9540 H         1 S04      0.010805
     28 H372       22.9240  -12.8710   25.3030 H         1 S04      0.010805
     29 C38        21.6880  -13.9430   23.9180 C.3       1 S04     -0.015574
     30 H381       22.4850  -14.5920   23.5550 H         1 S04      0.019808
     31 H382       21.6100  -13.0680   23.2720 H         1 S04      0.019808
     32 C39        20.3700  -14.7060   23.8820 C.3       1 S04     -0.033682
     33 H391       20.1380  -14.9820   22.8530 H         1 S04      0.000919
     34 H392       20.4550  -15.6070   24.4900 H         1 S04      0.000919
     35 N9         16.0980  -15.4890   23.1420 N.3       1 S04     -0.484016
     36 H9         16.2680  -16.1610   23.8770 H         1 S04      0.336619
     37 C10        17.3190  -14.7160   23.0120 C.3       1 S04      0.095805
     38 H10        18.0400  -15.2100   22.3600 H         1 S04      0.125323
     39 C11        17.9240  -14.5670   24.4060 C.3       1 S04     -0.061129
     40 H111       17.2140  -14.0240   25.0300 H         1 S04      0.058353
     41 H112       18.0820  -15.5640   24.8180 H         1 S04      0.058353
     42 C13        16.9920  -13.3780   22.4060 C.2       1 S04      0.297755
     43 O17        16.0700  -12.7160   22.8610 O.2       1 S04     -0.571614
     44 N14        17.7310  -12.9500   21.3810 N.am      1 S04     -0.009877
     45 C18        17.4250  -11.6620   20.7520 C.3       1 S04     -0.014345
     46 H18        17.6720  -10.8340   21.4160 H         1 S04      0.117581
     47 C19        15.9650  -11.4950   20.4370 C.2       1 S04      0.337118
     48 O20        15.3180  -12.4040   19.9340 O.2       1 S04     -0.536187
     49 C23        18.2330  -11.6880   19.4560 C.3       1 S04     -0.152272
     50 H231       18.6420  -10.7000   19.2420 H         1 S04      0.100012
     51 H232       17.6070  -12.0100   18.6240 H         1 S04      0.100012
     52 C24        19.3520  -12.6850   19.6950 C.3       1 S04      0.003418
     53 H241       20.2420  -12.1720   20.0580 H         1 S04      0.044406
     54 H242       19.5880  -13.2140   18.7720 H         1 S04      0.044406
     55 C25        18.8440  -13.6620   20.7450 C.3       1 S04     -0.157022
     56 H251       18.4980  -14.5850   20.2800 H         1 S04      0.088429
     57 H252       19.6240  -13.8900   21.4710 H         1 S04      0.088429
     58 N21        15.4050  -10.3260   20.7320 N.am      1 S04     -0.052641
     59 H21        15.9690   -9.6140   21.1730 H         1 S04      0.181977
     60 C22        14.0080  -10.0360   20.4420 C.3       1 S04     -0.095672
     61 H221       13.6420  -10.7880   19.7430 H         1 S04      0.105623
     62 H222       13.9540   -9.0510   19.9780 H         1 S04      0.105623
     63 C26        13.1060  -10.0380   21.6500 C.ar      1 S04     -0.027107
     64 C27        12.2860  -11.1200   21.9460 C.ar      1 S04     -0.021919
     65 C28        12.2740  -12.3540   21.0740 C.3       1 S04     -0.000646
     66 H281       12.7060  -12.1120   20.1030 H         1 S04      0.102197
     67 H282       11.2450  -12.6890   20.9400 H         1 S04      0.102197
     68 N34        13.0470  -13.4170   21.6900 N.4       1 S04     -0.142152
     69 H343       12.6460  -13.6480   22.5880 H         1 S04      0.254355
     70 H341       14.0010  -13.1100   21.8160 H         1 S04      0.254355
     71 H342       13.0310  -14.2330   21.0950 H         1 S04      0.254355
     72 C29        11.4510  -11.0780   23.0540 C.ar      1 S04     -0.209883
     73 H29        10.8170  -11.9220   23.2810 H         1 S04      0.159326
     74 C30        11.4260   -9.9550   23.8730 C.ar      1 S04     -0.001588
     75 H30        10.7700   -9.9120   24.7300 H         1 S04      0.126453
     76 C31        12.2590   -8.8930   23.5690 C.ar      1 S04     -0.021252
     77 Cl3        12.2440   -7.4520   24.6080 Cl        1 S04     -0.070227
     78 C33        13.0930   -8.9210   22.4650 C.ar      1 S04     -0.081561
     79 H33        13.7290   -8.0770   22.2420 H         1 S04      0.138468
@<TRIPOS>BOND
     1    1    2 1   
     2    1    3 1   
     3    1    4 1   
     4    1    5 1   
     5    4   16 2   
     6    4   17 2   
     7    4   35 1   
     8    5    6 ar  
     9    5   14 ar  
    10    6    7 1   
    11    6    8 ar  
    12    8    9 1   
    13    8   10 ar  
    14   10   11 1   
    15   10   12 ar  
    16   12   13 1   
    17   12   14 ar  
    18   14   15 1   
    19   18   19 1   
    20   18   20 1   
    21   18   32 1   
    22   18   39 1   
    23   20   21 1   
    24   20   22 1   
    25   20   23 1   
    26   23   24 1   
    27   23   25 1   
    28   23   26 1   
    29   26   27 1   
    30   26   28 1   
    31   26   29 1   
    32   29   30 1   
    33   29   31 1   
    34   29   32 1   
    35   32   33 1   
    36   32   34 1   
    37   35   36 1   
    38   35   37 1   
    39   37   38 1   
    40   37   39 1   
    41   37   42 1   
    42   39   40 1   
    43   39   41 1   
    44   42   43 2   
    45   42   44 am  
    46   44   45 1   
    47   44   55 1   
    48   45   46 1   
    49   45   47 1   
    50   45   49 1   
    51   47   48 2   
    52   47   58 am  
    53   49   50 1   
    54   49   51 1   
    55   49   52 1   
    56   52   53 1   
    57   52   54 1   
    58   52   55 1   
    59   55   56 1   
    60   55   57 1   
    61   58   59 1   
    62   58   60 1   
    63   60   61 1   
    64   60   62 1   
    65   60   63 1   
    66   63   64 ar  
    67   63   78 ar  
    68   64   65 1   
    69   64   72 ar  
    70   65   66 1   
    71   65   67 1   
    72   65   68 1   
    73   68   69 1   
    74   68   70 1   
    75   68   71 1   
    76   72   73 1   
    77   72   74 ar  
    78   74   75 1   
    79   74   76 ar  
    80   76   77 1   
    81   76   78 ar  
    82   78   79 1   
@<TRIPOS>SUBSTRUCTURE
     1 S04         1 TEMP              0 ****  ****    0 ROOT
