@<TRIPOS>MOLECULE
P97_1
   51    53     1     0     0
SMALL
No Charge or Current Charge


@<TRIPOS>ATOM
      1 N4        -16.4730  -15.2100  -23.0850 N.4       1 P97     -0.151709
      2 C3        -17.7530  -14.5200  -23.0690 C.3       1 P97      0.124621
      3 C5        -17.5340  -13.1460  -22.4830 C.2       1 P97      0.342246
      4 O7        -16.5920  -12.4510  -22.8500 O.2       1 P97     -0.489978
      5 C2        -18.2930  -14.4790  -24.5010 C.3       1 P97     -0.109292
      6 C1        -19.7100  -13.9460  -24.5650 C.ar      1 P97      0.005841
      7 C8        -20.7670  -14.6060  -23.9410 C.ar      1 P97     -0.139166
      8 C12       -19.9890  -12.7930  -25.2820 C.ar      1 P97     -0.139166
      9 C9        -22.0590  -14.0890  -24.0320 C.ar      1 P97     -0.158210
     10 C11       -21.2770  -12.2680  -25.3650 C.ar      1 P97     -0.158210
     11 C10       -22.3340  -12.9260  -24.7400 C.ar      1 P97     -0.086207
     12 N6        -18.3800  -12.7030  -21.5680 N.am      1 P97     -0.136453
     13 C13       -18.1560  -11.3840  -20.9760 C.3       1 P97     -0.006223
     14 C14       -16.8050  -11.3500  -20.3040 C.2       1 P97      0.300255
     15 O15       -16.4070  -12.2900  -19.6140 O.2       1 P97     -0.458381
     16 C19       -19.2840  -11.2030  -19.9640 C.3       1 P97     -0.148171
     17 C20       -20.3080  -12.2870  -20.2840 C.3       1 P97     -0.030596
     18 C21       -19.5420  -13.3950  -20.9960 C.3       1 P97     -0.011345
     19 N16       -16.0440  -10.2740  -20.5320 N.am      1 P97     -0.319259
     20 C17       -14.7080  -10.1080  -19.9520 C.3       1 P97     -0.137199
     21 C18       -13.6680  -10.9010  -20.7100 C.ar      1 P97      0.016902
     22 C22       -13.3470  -12.2020  -20.3320 C.ar      1 P97      0.279400
     23 N23       -12.4230  -12.8960  -21.0100 N.ar      1 P97     -0.613145
     24 C24       -11.7800  -12.3770  -22.0650 C.ar      1 P97      0.272232
     25 C25       -12.0560  -11.0840  -22.4840 C.ar      1 P97     -0.201999
     26 C26       -13.0080  -10.3610  -21.7820 C.ar      1 P97      0.038813
     27 Cl27      -13.3970   -8.7080  -22.3060 Cl        1 P97     -0.040727
     28 H1        -16.6010  -16.1490  -23.4340 H         1 P97      0.247342
     29 H2        -16.0990  -15.2480  -22.1470 H         1 P97      0.247342
     30 H3        -15.8300  -14.7130  -23.6840 H         1 P97      0.247342
     31 H4        -18.4940  -15.0300  -22.4540 H         1 P97      0.051169
     32 H5        -18.2790  -15.4890  -24.9100 H         1 P97      0.091772
     33 H6        -17.6490  -13.8360  -25.1000 H         1 P97      0.091772
     34 H7        -20.5860  -15.5160  -23.3880 H         1 P97      0.134030
     35 H8        -19.1830  -12.2860  -25.7920 H         1 P97      0.134030
     36 H9        -22.8680  -14.6070  -23.5380 H         1 P97      0.160118
     37 H10       -21.4550  -11.3540  -25.9120 H         1 P97      0.160118
     38 H11       -23.3410  -12.5420  -24.8040 H         1 P97      0.147431
     39 H12       -18.1590  -10.5840  -21.7160 H         1 P97      0.119758
     40 H13       -19.7320  -10.2150  -20.0680 H         1 P97      0.101359
     41 H14       -18.9060  -11.3260  -18.9490 H         1 P97      0.101359
     42 H15       -21.0890  -11.8900  -20.9330 H         1 P97      0.057146
     43 H16       -20.7560  -12.6670  -19.3660 H         1 P97      0.057146
     44 H17       -19.2280  -14.1650  -20.2910 H         1 P97      0.064917
     45 H18       -20.1500  -13.8460  -21.7800 H         1 P97      0.064917
     46 H19       -16.4050   -9.5440  -21.1300 H         1 P97      0.296294
     47 H20       -14.7270  -10.4490  -18.9170 H         1 P97      0.132701
     48 H21       -14.4380   -9.0520  -19.9820 H         1 P97      0.132701
     49 H22       -13.8460  -12.6540  -19.4870 H         1 P97      0.066847
     50 H23       -11.0440  -12.9680  -22.5910 H         1 P97      0.097988
     51 H24       -11.5440  -10.6530  -23.3320 H         1 P97      0.149526
@<TRIPOS>BOND
     1    1    2 1   
     2    1   28 1   
     3    1   29 1   
     4    1   30 1   
     5    2    3 1   
     6    2    5 1   
     7    2   31 1   
     8    3    4 2   
     9    3   12 am  
    10    5    6 1   
    11    5   32 1   
    12    5   33 1   
    13    6    7 ar  
    14    6    8 ar  
    15    7    9 ar  
    16    7   34 1   
    17    8   10 ar  
    18    8   35 1   
    19    9   11 ar  
    20    9   36 1   
    21   10   11 ar  
    22   10   37 1   
    23   11   38 1   
    24   12   13 1   
    25   12   18 1   
    26   13   14 1   
    27   13   16 1   
    28   13   39 1   
    29   14   15 2   
    30   14   19 am  
    31   16   17 1   
    32   16   40 1   
    33   16   41 1   
    34   17   18 1   
    35   17   42 1   
    36   17   43 1   
    37   18   44 1   
    38   18   45 1   
    39   19   20 1   
    40   19   46 1   
    41   20   21 1   
    42   20   47 1   
    43   20   48 1   
    44   21   22 ar  
    45   21   26 ar  
    46   22   23 ar  
    47   22   49 1   
    48   23   24 ar  
    49   24   25 ar  
    50   24   50 1   
    51   25   26 ar  
    52   25   51 1   
    53   26   27 1   
@<TRIPOS>SUBSTRUCTURE
     1 P97         1 TEMP              0 ****  ****    0 ROOT
