@<TRIPOS>MOLECULE
B01
   51    53     1     0     0
SMALL
No Charge or Current Charge


@<TRIPOS>ATOM
      1 N21        16.4670  -16.0470   23.1480 N.4       1 B01     -0.204500
      2 H213       16.6890  -16.9650   23.5050 H         1 B01      0.276800
      3 H211       16.2020  -16.1190   22.1760 H         1 B01      0.276800
      4 H212       15.7010  -15.6560   23.6780 H         1 B01      0.276800
      5 C8         17.6300  -15.1850   23.2700 C.3       1 B01      0.023400
      6 H8         18.4670  -15.5940   22.7030 H         1 B01      0.100600
      7 C9         17.2830  -13.8210   22.7350 C.2       1 B01      0.499000
      8 O25        16.2960  -13.2280   23.1540 O.2       1 B01     -0.536100
      9 C7         18.0200  -15.0840   24.7410 C.3       1 B01     -0.223100
     10 H71        17.9540  -16.0690   25.2030 H         1 B01      0.117400
     11 H72        17.3420  -14.3980   25.2500 H         1 B01      0.117400
     12 C6         19.4380  -14.5680   24.8540 C.ar      1 B01      0.071100
     13 C1         20.4480  -15.1110   24.0600 C.ar      1 B01     -0.155100
     14 H1         20.2180  -15.8990   23.3580 H         1 B01      0.142900
     15 C5         19.7360  -13.5580   25.7650 C.ar      1 B01     -0.155100
     16 H5         18.9550  -13.1430   26.3850 H         1 B01      0.142900
     17 C2         21.7540  -14.6370   24.1720 C.ar      1 B01     -0.175500
     18 H2         22.5370  -15.0560   23.5570 H         1 B01      0.166700
     19 C4         21.0380  -13.0840   25.8760 C.ar      1 B01     -0.175500
     20 H4         21.2690  -12.2980   26.5800 H         1 B01      0.166700
     21 C3         22.0460  -13.6240   25.0770 C.ar      1 B01     -0.065700
     22 H3         23.0570  -13.2530   25.1620 H         1 B01      0.145500
     23 N22        18.0770  -13.3080   21.7950 N.am      1 B01     -0.258900
     24 C10        17.7740  -11.9880   21.2330 C.3       1 B01      0.045500
     25 H10        17.8130  -11.1990   21.9840 H         1 B01      0.092100
     26 C11        16.3830  -11.9630   20.6550 C.2       1 B01      0.446300
     27 O26        15.9960  -12.9110   19.9890 O.2       1 B01     -0.548900
     28 C14        18.8090  -11.8000   20.1290 C.3       1 B01     -0.006400
     29 H141       19.5330  -11.0390   20.4210 H         1 B01      0.042100
     30 H142       18.3180  -11.4980   19.2040 H         1 B01      0.042100
     31 C15        19.5060  -13.1370   19.9370 C.3       1 B01     -0.021400
     32 H151       20.5740  -12.9870   19.7760 H         1 B01      0.046400
     33 H152       19.0810  -13.6650   19.0840 H         1 B01      0.046400
     34 C16        19.2710  -13.9260   21.2160 C.3       1 B01     -0.003700
     35 H161       19.0950  -14.9790   20.9960 H         1 B01      0.060000
     36 H162       20.1220  -13.8330   21.8910 H         1 B01      0.060000
     37 C12        14.2330  -10.7040   20.4400 C.3       1 B01     -0.124700
     38 H121       14.1850   -9.7840   19.8570 H         1 B01      0.101800
     39 H122       13.9480  -11.5480   19.8110 H         1 B01      0.101800
     40 C13        13.2640  -10.6040   21.6020 C.ar      1 B01      0.253200
     41 C17        11.5220  -11.5700   22.8360 C.ar      1 B01      0.022200
     42 H17        10.8380  -12.3930   22.9830 H         1 B01      0.131300
     43 C18        11.4780  -10.4810   23.7070 C.ar      1 B01     -0.057500
     44 H18        10.7650  -10.4590   24.5180 H         1 B01      0.131400
     45 C19        12.3620   -9.4240   23.5200 C.ar      1 B01     -0.032300
     46 C20        13.2590   -9.4960   22.4520 C.ar      1 B01     -0.094500
     47 H20        13.9550   -8.6880   22.2820 H         1 B01      0.121900
     48 N23        15.6070  -10.9010   20.9080 N.am      1 B01     -0.190800
     49 H23        16.0070  -10.1670   21.4750 H         1 B01      0.130900
     50 N24        12.3970  -11.6160   21.8180 N.ar      1 B01     -0.324100
     51 Cl27       12.3300   -7.9990   24.6400 Cl        1 B01     -0.045600
@<TRIPOS>BOND
     1    1    2 1   
     2    1    3 1   
     3    1    4 1   
     4    1    5 1   
     5    5    6 1   
     6    5    7 1   
     7    5    9 1   
     8    7    8 2   
     9    7   23 am  
    10    9   10 1   
    11    9   11 1   
    12    9   12 1   
    13   12   13 ar  
    14   12   15 ar  
    15   13   14 1   
    16   13   17 ar  
    17   15   16 1   
    18   15   19 ar  
    19   17   18 1   
    20   17   21 ar  
    21   19   20 1   
    22   19   21 ar  
    23   21   22 1   
    24   23   24 1   
    25   23   34 1   
    26   24   25 1   
    27   24   26 1   
    28   24   28 1   
    29   26   27 2   
    30   26   48 am  
    31   28   29 1   
    32   28   30 1   
    33   28   31 1   
    34   31   32 1   
    35   31   33 1   
    36   31   34 1   
    37   34   35 1   
    38   34   36 1   
    39   37   38 1   
    40   37   39 1   
    41   37   40 1   
    42   37   48 1   
    43   40   46 ar  
    44   40   50 ar  
    45   41   42 1   
    46   41   43 ar  
    47   41   50 ar  
    48   43   44 1   
    49   43   45 ar  
    50   45   46 ar  
    51   45   51 1   
    52   46   47 1   
    53   48   49 1   
@<TRIPOS>SUBSTRUCTURE
     1 B01         1 TEMP              0 ****  ****    0 ROOT
