@<TRIPOS>MOLECULE
B03_5_B
   51    53     1     0     0
SMALL
No Charge or Current Charge


@<TRIPOS>ATOM
      1 N10        16.6920  -15.3670   23.3600 N.4       5 B03     -0.267520
      2 C8         17.9710  -14.6840   23.3400 C.3       5 B03      0.270486
      3 C9         17.7590  -13.3150   22.7490 C.2       5 B03      0.163311
      4 O12        16.8250  -12.6150   23.1350 O.2       5 B03     -0.508978
      5 C7         18.4740  -14.5870   24.7850 C.3       5 B03     -0.089363
      6 C4         19.8740  -14.0180   24.8370 C.ar      5 B03     -0.016279
      7 C3         20.9500  -14.6840   24.2540 C.ar      5 B03     -0.135774
      8 C5         20.0850  -12.8070   25.4680 C.ar      5 B03     -0.135774
      9 C2         22.2250  -14.1270   24.3100 C.ar      5 B03     -0.150841
     10 C6         21.3540  -12.2480   25.5180 C.ar      5 B03     -0.150841
     11 C1         22.4350  -12.9120   24.9400 C.ar      5 B03     -0.092908
     12 N11        18.6040  -12.9030   21.8160 N.am      5 B03     -0.015568
     13 C13        18.4090  -11.5830   21.2360 C.3       5 B03      0.043012
     14 C17        17.1020  -11.4690   20.5220 C.2       5 B03      0.466062
     15 O28        16.5670  -12.4430   20.0060 O.2       5 B03     -0.469489
     16 C15        19.5130  -11.4360   20.1920 C.3       5 B03     -0.057243
     17 C16        20.5110  -12.5460   20.4710 C.3       5 B03     -0.039232
     18 C14        19.7600  -13.6160   21.2560 C.3       5 B03     -0.023445
     19 N18        16.5610  -10.2570   20.4880 N.am      5 B03     -0.497517
     20 C19        15.3210   -9.9630   19.8020 C.3       5 B03     -0.046574
     21 C20        14.0980  -10.0830   20.6670 C.ar      5 B03      0.432336
     22 C22        14.0980  -10.8910   21.7950 C.ar      5 B03     -0.308962
     23 C23        12.9460  -10.9780   22.5620 C.ar      5 B03     -0.009071
     24 C24        11.8280  -10.2510   22.1760 C.ar      5 B03     -0.240283
     25 C25        11.8840   -9.4570   21.0420 C.ar      5 B03      0.211886
     26 N21        13.0000   -9.3840   20.3110 N.ar      5 B03     -0.552817
     27 H101       16.3370  -15.4450   22.4180 H         5 B03      0.269965
     28 H102       16.0390  -14.8420   23.9240 H         5 B03      0.269965
     29 H103       16.8090  -16.2900   23.7530 H         5 B03      0.269965
     30 H8         18.7090  -15.2170   22.7410 H         5 B03      0.002351
     31 H71        18.4780  -15.5830   25.2280 H         5 B03      0.077253
     32 H72        17.8050  -13.9390   25.3520 H         5 B03      0.077253
     33 H3         20.7950  -15.6310   23.7590 H         5 B03      0.143967
     34 H5         19.2550  -12.2910   25.9270 H         5 B03      0.143967
     35 H2         23.0570  -14.6470   23.8580 H         5 B03      0.156098
     36 H6         21.5050  -11.2960   26.0060 H         5 B03      0.156098
     37 H1         23.4250  -12.4830   24.9830 H         5 B03      0.148660
     38 H13        18.4270  -10.8270   22.0210 H         5 B03      0.082323
     39 H151       19.9950  -10.4630   20.2860 H         5 B03      0.055851
     40 H152       19.1010  -11.5420   19.1890 H         5 B03      0.055851
     41 H161       21.3450  -12.1630   21.0590 H         5 B03      0.047457
     42 H162       20.8860  -12.9590   19.5350 H         5 B03      0.047457
     43 H141       19.4360  -14.4230   20.5980 H         5 B03      0.058374
     44 H142       20.3850  -14.0240   22.0500 H         5 B03      0.058374
     45 H18        17.0380   -9.5040   20.9640 H         5 B03      0.319016
     46 H191       15.2190  -10.6560   18.9670 H         5 B03      0.106208
     47 H192       15.3730   -8.9420   19.4230 H         5 B03      0.106208
     48 H22        14.9830  -11.4450   22.0720 H         5 B03      0.175831
     49 H23        12.9190  -11.6000   23.4440 H         5 B03      0.157176
     50 H24        10.9190  -10.3040   22.7570 H         5 B03      0.151782
     51 H25        11.0140   -8.8900   20.7450 H         5 B03      0.083935
@<TRIPOS>BOND
     1    1    2 1   
     2    1   27 1   
     3    1   28 1   
     4    1   29 1   
     5    2    3 1   
     6    2    5 1   
     7    2   30 1   
     8    3    4 2   
     9    3   12 am  
    10    5    6 1   
    11    5   31 1   
    12    5   32 1   
    13    6    7 ar  
    14    6    8 ar  
    15    7    9 ar  
    16    7   33 1   
    17    8   10 ar  
    18    8   34 1   
    19    9   11 ar  
    20    9   35 1   
    21   10   11 ar  
    22   10   36 1   
    23   11   37 1   
    24   12   13 1   
    25   12   18 1   
    26   13   14 1   
    27   13   16 1   
    28   13   38 1   
    29   14   15 2   
    30   14   19 am  
    31   16   17 1   
    32   16   39 1   
    33   16   40 1   
    34   17   18 1   
    35   17   41 1   
    36   17   42 1   
    37   18   43 1   
    38   18   44 1   
    39   19   20 1   
    40   19   45 1   
    41   20   21 1   
    42   20   46 1   
    43   20   47 1   
    44   21   22 ar  
    45   21   26 ar  
    46   22   23 ar  
    47   22   48 1   
    48   23   24 ar  
    49   23   49 1   
    50   24   25 ar  
    51   24   50 1   
    52   25   26 ar  
    53   25   51 1   
@<TRIPOS>SUBSTRUCTURE
     1 B03         1 TEMP              0 ****  ****    0 ROOT
