@<TRIPOS>MOLECULE
B04_1_A
   55    57     1     0     0
SMALL
No Charge or Current Charge


@<TRIPOS>ATOM
      1 N4         16.6960  -15.5690   23.2920 N.4       1 B04     -0.214144
      2 C3         17.9550  -14.8470   23.2990 C.3       1 B04      0.011713
      3 C5         17.7070  -13.4920   22.6930 C.2       1 B04      0.376168
      4 O7         16.7810  -12.7970   23.0920 O.2       1 B04     -0.510871
      5 C2         18.4400  -14.7650   24.7430 C.3       1 B04     -0.205801
      6 C1         19.8390  -14.2060   24.8030 C.ar      1 B04      0.009041
      7 C8         20.9130  -14.8860   24.2310 C.ar      1 B04     -0.120937
      8 C12        20.0440  -13.0020   25.4600 C.ar      1 B04     -0.120937
      9 C9         22.1940  -14.3480   24.3120 C.ar      1 B04     -0.163932
     10 C11        21.3220  -12.4660   25.5340 C.ar      1 B04     -0.163932
     11 C10        22.3970  -13.1350   24.9610 C.ar      1 B04     -0.084263
     12 N6         18.5140  -13.0720   21.7160 N.am      1 B04     -0.116781
     13 C13        18.2630  -11.7660   21.1060 C.3       1 B04     -0.038528
     14 C14        16.8660  -11.7520   20.5410 C.2       1 B04      0.422464
     15 O15        16.4590  -12.7100   19.8990 O.2       1 B04     -0.451759
     16 C19        19.2930  -11.6620   19.9880 C.3       1 B04     -0.156844
     17 C20        20.3510  -12.6940   20.3150 C.3       1 B04      0.019342
     18 C21        19.6530  -13.7790   21.1240 C.3       1 B04      0.016513
     19 N16        16.0900  -10.6930   20.7800 N.am      1 B04     -0.461355
     20 C17        14.7210  -10.5330   20.2950 C.3       1 B04     -0.040827
     21 C18        13.7290  -10.4070   21.4310 C.ar      1 B04      0.109068
     22 C22        13.5170   -9.1730   22.0410 C.ar      1 B04     -0.132341
     23 C23        12.6090   -9.0770   23.0860 C.ar      1 B04     -0.013977
     24 C24        11.9200  -10.2160   23.4870 C.ar      1 B04     -0.138420
     25 C25        12.1690  -11.4190   22.8380 C.ar      1 B04     -0.028445
     26 N26        13.0570  -11.4940   21.8380 N.pl3     1 B04      0.083761
     27 C27        13.2920  -12.7830   21.1790 C.3       1 B04     -0.050568
     28 H1         16.3520  -15.6370   22.3450 H         1 B04      0.285199
     29 H2         16.0220  -15.0760   23.8600 H         1 B04      0.285199
     30 H3         16.8370  -16.4960   23.6670 H         1 B04      0.285199
     31 H4         18.7300  -15.3420   22.7140 H         1 B04      0.122454
     32 H5         18.4340  -15.7640   25.1800 H         1 B04      0.127604
     33 H6         17.7710  -14.1170   25.3090 H         1 B04      0.127604
     34 H7         20.7520  -15.8270   23.7270 H         1 B04      0.134046
     35 H8         19.2120  -12.4830   25.9130 H         1 B04      0.134046
     36 H9         23.0290  -14.8720   23.8710 H         1 B04      0.170192
     37 H10        21.4820  -11.5250   26.0390 H         1 B04      0.170192
     38 H11        23.3890  -12.7130   25.0200 H         1 B04      0.161549
     39 H12        18.3440  -10.9370   21.8090 H         1 B04      0.113402
     40 H13        19.7300  -10.6640   19.9640 H         1 B04      0.098643
     41 H14        18.8330  -11.8810   19.0240 H         1 B04      0.098643
     42 H15        21.1510  -12.2420   20.9010 H         1 B04      0.046725
     43 H16        20.7650  -13.1140   19.3980 H         1 B04      0.046725
     44 H17        19.3170  -14.5920   20.4800 H         1 B04      0.056166
     45 H18        20.3120  -14.1760   21.8970 H         1 B04      0.056166
     46 H19        16.4780   -9.9460   21.3380 H         1 B04      0.332851
     47 H20        14.4570  -11.4020   19.6920 H         1 B04      0.142063
     48 H21        14.6680   -9.6340   19.6800 H         1 B04      0.142063
     49 H22        14.0540   -8.2990   21.7040 H         1 B04      0.159480
     50 H23        12.4400   -8.1320   23.5800 H         1 B04      0.198571
     51 H24        11.2010  -10.1660   24.2920 H         1 B04      0.192584
     52 H25        11.6380  -12.3080   23.1450 H         1 B04      0.200346
     53 H26        14.0390  -12.6590   20.3950 H         1 B04      0.092960
     54 H27        12.3610  -13.1420   20.7400 H         1 B04      0.092960
     55 H28        13.6500  -13.5060   21.9120 H         1 B04      0.092960
@<TRIPOS>BOND
     1    1    2 1   
     2    1   28 1   
     3    1   29 1   
     4    1   30 1   
     5    2    3 1   
     6    2    5 1   
     7    2   31 1   
     8    3    4 2   
     9    3   12 am  
    10    5    6 1   
    11    5   32 1   
    12    5   33 1   
    13    6    7 ar  
    14    6    8 ar  
    15    7    9 ar  
    16    7   34 1   
    17    8   10 ar  
    18    8   35 1   
    19    9   11 ar  
    20    9   36 1   
    21   10   11 ar  
    22   10   37 1   
    23   11   38 1   
    24   12   13 1   
    25   12   18 1   
    26   13   14 1   
    27   13   16 1   
    28   13   39 1   
    29   14   15 2   
    30   14   19 am  
    31   16   17 1   
    32   16   40 1   
    33   16   41 1   
    34   17   18 1   
    35   17   42 1   
    36   17   43 1   
    37   18   44 1   
    38   18   45 1   
    39   19   20 1   
    40   19   46 1   
    41   20   21 1   
    42   20   47 1   
    43   20   48 1   
    44   21   22 ar  
    45   21   26 2   
    46   22   23 ar  
    47   22   49 1   
    48   23   24 ar  
    49   23   50 1   
    50   24   25 ar  
    51   24   51 1   
    52   25   26 1   
    53   25   52 1   
    54   26   27 1   
    55   27   53 1   
    56   27   54 1   
    57   27   55 1   
@<TRIPOS>SUBSTRUCTURE
     1 B04         1 TEMP              0 ****  ****    0 ROOT
