@<TRIPOS>MOLECULE
P05
   51    53     1     0     0
SMALL
No Charge or Current Charge


@<TRIPOS>ATOM
      1 N21        16.4180  -15.5200   23.1810 N.4       1 P05     -0.068600
      2 H213       16.5120  -16.4410   23.5840 H         1 P05      0.227900
      3 H211       16.0490  -15.5980   22.2440 H         1 P05      0.227900
      4 H212       15.7890  -14.9680   23.7460 H         1 P05      0.227900
      5 C8         17.7190  -14.8760   23.1360 C.3       1 P05      0.006700
      6 H8         18.4330  -15.4310   22.5280 H         1 P05      0.047400
      7 C9         17.5440  -13.4940   22.5390 C.2       1 P05      0.327800
      8 O25        16.6280  -12.7610   22.9230 O.2       1 P05     -0.475900
      9 C7         18.2270  -14.7850   24.5750 C.3       1 P05     -0.072800
     10 H71        18.2090  -15.7800   25.0190 H         1 P05      0.094100
     11 H72        17.5700  -14.1240   25.1400 H         1 P05      0.094100
     12 C4         19.6320  -14.2480   24.6420 C.ar      1 P05      0.029500
     13 C3         19.8640  -13.0460   25.3050 C.ar      1 P05     -0.151000
     14 H3         19.0440  -12.5180   25.7690 H         1 P05      0.128800
     15 C5         20.6930  -14.9330   24.0500 C.ar      1 P05     -0.151000
     16 H5         20.5150  -15.8610   23.5260 H         1 P05      0.128800
     17 C2         21.1510  -12.5260   25.3690 C.ar      1 P05     -0.146500
     18 H2         21.3260  -11.5870   25.8740 H         1 P05      0.158400
     19 C6         21.9780  -14.4170   24.1370 C.ar      1 P05     -0.146500
     20 H6         22.8020  -14.9590   23.6960 H         1 P05      0.158400
     21 C1         22.2170  -13.2070   24.7870 C.ar      1 P05     -0.106700
     22 H1         23.2170  -12.8030   24.8380 H         1 P05      0.153900
     23 N22        18.3880  -13.0960   21.5830 N.am      1 P05     -0.073800
     24 C13        18.1900  -11.7780   20.9800 C.3       1 P05      0.023500
     25 H13        18.3000  -10.9890   21.7240 H         1 P05      0.068800
     26 C14        16.8140  -11.6760   20.3860 C.2       1 P05      0.525300
     27 O26        16.3240  -12.6040   19.7390 O.2       1 P05     -0.502600
     28 C12        19.2130  -11.6680   19.8660 C.3       1 P05     -0.112800
     29 H121       19.6700  -10.6780   19.8590 H         1 P05      0.069300
     30 H122       18.7500  -11.8610   18.8980 H         1 P05      0.069300
     31 C11        20.2390  -12.7270   20.1870 C.3       1 P05     -0.022900
     32 H111       21.0390  -12.3030   20.7940 H         1 P05      0.049700
     33 H112       20.6580  -13.1350   19.2670 H         1 P05      0.049700
     34 C10        19.5080  -13.8260   20.9680 C.3       1 P05     -0.046300
     35 H101       19.1480  -14.6090   20.3010 H         1 P05      0.082400
     36 H102       20.1550  -14.2650   21.7270 H         1 P05      0.082400
     37 C15        14.8270  -10.2230   20.1030 C.3       1 P05     -0.031200
     38 H151       14.7790   -9.1630   19.8520 H         1 P05      0.128900
     39 H152       14.6340  -10.8170   19.2100 H         1 P05      0.128900
     40 C16        13.7650  -10.5290   21.1300 C.ar      1 P05      0.144200
     41 C17        13.1850   -9.5250   21.9130 C.ar      1 P05     -0.241900
     42 H17        13.4930   -8.4960   21.8030 H         1 P05      0.119000
     43 C18        12.2070   -9.8740   22.8340 C.ar      1 P05      0.238400
     44 H18        11.7640   -9.1130   23.4590 H         1 P05      0.092400
     45 C19        12.3610  -12.1220   22.2190 C.ar      1 P05      0.238400
     46 H19        12.0300  -13.1410   22.3540 H         1 P05      0.092400
     47 C20        13.3520  -11.8470   21.2870 C.ar      1 P05     -0.241900
     48 H20        13.7920  -12.6380   20.6980 H         1 P05      0.119000
     49 N23        16.1610  -10.5290   20.5910 N.am      1 P05     -0.566700
     50 H23        16.6330   -9.8160   21.1290 H         1 P05      0.368100
     51 N24        11.8080  -11.1510   22.9530 N.ar      1 P05     -0.542600
@<TRIPOS>BOND
     1    1    2 1   
     2    1    3 1   
     3    1    4 1   
     4    1    5 1   
     5    5    6 1   
     6    5    7 1   
     7    5    9 1   
     8    7    8 2   
     9    7   23 am  
    10    9   10 1   
    11    9   11 1   
    12    9   12 1   
    13   12   13 ar  
    14   12   15 ar  
    15   13   14 1   
    16   13   17 ar  
    17   15   16 1   
    18   15   19 ar  
    19   17   18 1   
    20   17   21 ar  
    21   19   20 1   
    22   19   21 ar  
    23   21   22 1   
    24   23   24 1   
    25   23   34 1   
    26   24   25 1   
    27   24   26 1   
    28   24   28 1   
    29   26   27 2   
    30   26   49 am  
    31   28   29 1   
    32   28   30 1   
    33   28   31 1   
    34   31   32 1   
    35   31   33 1   
    36   31   34 1   
    37   34   35 1   
    38   34   36 1   
    39   37   38 1   
    40   37   39 1   
    41   37   40 1   
    42   37   49 1   
    43   40   41 ar  
    44   40   47 ar  
    45   41   42 1   
    46   41   43 ar  
    47   43   44 1   
    48   43   51 ar  
    49   45   46 1   
    50   45   47 ar  
    51   45   51 ar  
    52   47   48 1   
    53   49   50 1   
@<TRIPOS>SUBSTRUCTURE
     1 P05         1 TEMP              0 ****  ****    0 ROOT
