@<TRIPOS>MOLECULE
3T5F.H
   72    74     1     0     0
SMALL
No Charge or Current Charge


@<TRIPOS>ATOM
      1 C7         16.2800  -17.9220   22.1700 C.3       1 M34     -0.160432
      2 H71        17.3650  -17.9660   22.2680 H         1 M34      0.123567
      3 H72        15.9750  -18.4600   21.2720 H         1 M34      0.123567
      4 S8         15.7990  -16.3270   22.0500 S.o2      1 M34      1.010818
      5 C4         15.6400  -18.5650   23.3820 C.ar      1 M34      0.030408
      6 C5         14.3690  -19.1240   23.2810 C.ar      1 M34     -0.122001
      7 H5         13.8430  -19.1010   22.3380 H         1 M34      0.141213
      8 C6         13.7740  -19.7130   24.3940 C.ar      1 M34     -0.167967
      9 H6         12.7900  -20.1500   24.3130 H         1 M34      0.156313
     10 C1         14.4500  -19.7380   25.6110 C.ar      1 M34     -0.089666
     11 H1         13.9880  -20.1900   26.4760 H         1 M34      0.145652
     12 C2         15.7210  -19.1810   25.7130 C.ar      1 M34     -0.167967
     13 H2         16.2480  -19.2060   26.6550 H         1 M34      0.156313
     14 C34        16.3130  -18.5920   24.5990 C.ar      1 M34     -0.122001
     15 H34        17.2970  -18.1550   24.6800 H         1 M34      0.141213
     16 O7         14.3670  -16.2530   22.1550 O.2       1 M34     -0.558399
     17 O19        16.2160  -15.8120   20.7790 O.2       1 M34     -0.558399
     18 N9         16.4600  -15.4670   23.2390 N.3       1 M34     -0.690763
     19 H9         16.7250  -16.1270   23.9560 H         1 M34      0.410264
     20 C10        17.6200  -14.6260   23.0040 C.3       1 M34      0.024407
     21 H10        18.2900  -15.1290   22.3070 H         1 M34      0.147379
     22 C20        18.3480  -14.3910   24.3280 C.3       1 M34     -0.179106
     23 H201       18.4880  -15.3530   24.8210 H         1 M34      0.087270
     24 H202       17.7290  -13.7490   24.9540 H         1 M34      0.087270
     25 C21        19.7140  -13.7300   24.1580 C.3       1 M34      0.225882
     26 H21        19.5860  -12.9070   23.4540 H         1 M34     -0.002490
     27 C22        20.7340  -14.7030   23.5770 C.3       1 M34     -0.227853
     28 H221       20.8770  -15.5350   24.2670 H         1 M34      0.060971
     29 H222       21.6830  -14.1880   23.4280 H         1 M34      0.060971
     30 H223       20.3720  -15.0820   22.6210 H         1 M34      0.060971
     31 C23        20.2230  -13.1580   25.4770 C.3       1 M34     -0.227853
     32 H231       20.3580  -13.9660   26.1960 H         1 M34      0.060971
     33 H232       19.4990  -12.4430   25.8660 H         1 M34      0.060971
     34 H233       21.1760  -12.6560   25.3120 H         1 M34      0.060971
     35 C11        17.2130  -13.3170   22.3870 C.2       1 M34      0.377779
     36 O24        16.2540  -12.7010   22.8270 O.2       1 M34     -0.564238
     37 N12        17.9450  -12.8710   21.3690 N.am      1 M34     -0.076151
     38 C13        17.5920  -11.6020   20.7340 C.3       1 M34     -0.004645
     39 H13        17.7940  -10.7670   21.4050 H         1 M34      0.109077
     40 C14        16.1330  -11.4820   20.3970 C.2       1 M34      0.340763
     41 O28        15.5310  -12.4090   19.8700 O.2       1 M34     -0.517322
     42 C27        18.4140  -11.5990   19.4510 C.3       1 M34     -0.023439
     43 H271       18.7550  -10.5900   19.2190 H         1 M34      0.054725
     44 H272       17.8240  -11.9830   18.6190 H         1 M34      0.054725
     45 C26        19.5960  -12.5080   19.7280 C.3       1 M34     -0.053153
     46 H261       20.4320  -11.9330   20.1260 H         1 M34      0.054646
     47 H262       19.9060  -13.0160   18.8150 H         1 M34      0.054646
     48 C25        19.1100  -13.5200   20.7590 C.3       1 M34     -0.046072
     49 H251       18.8250  -14.4560   20.2790 H         1 M34      0.058122
     50 H252       19.8810  -13.7140   21.5050 H         1 M34      0.058122
     51 N15        15.5310  -10.3350   20.7050 N.am      1 M34     -0.153376
     52 H15        16.0750   -9.6190   21.1650 H         1 M34      0.214346
     53 C16        14.1330  -10.0560   20.4160 C.3       1 M34     -0.055766
     54 H161       13.7710  -10.8080   19.7150 H         1 M34      0.097255
     55 H162       14.0670   -9.0690   19.9570 H         1 M34      0.097255
     56 C17        13.2420  -10.0740   21.6360 C.ar      1 M34     -0.025988
     57 C29        12.4600  -11.1830   21.9310 C.ar      1 M34     -0.024215
     58 C35        12.4840  -12.4240   21.0680 C.3       1 M34     -0.002121
     59 H351       12.9660  -12.1980   20.1170 H         1 M34      0.103278
     60 H352       11.4640  -12.7630   20.8870 H         1 M34      0.103278
     61 N36        13.2290  -13.4660   21.7560 N.4       1 M34     -0.131772
     62 H363       12.7830  -13.6730   22.6380 H         1 M34      0.252431
     63 H361       14.1740  -13.1500   21.9230 H         1 M34      0.252431
     64 H362       13.2480  -14.2990   21.1850 H         1 M34      0.252431
     65 C33        11.6380  -11.1800   23.0510 C.ar      1 M34     -0.219815
     66 H33        11.0450  -12.0520   23.2830 H         1 M34      0.161643
     67 C32        11.5730  -10.0660   23.8730 C.ar      1 M34      0.001598
     68 H32        10.9160  -10.0520   24.7300 H         1 M34      0.128015
     69 C31        12.3680   -8.9690   23.5740 C.ar      1 M34     -0.028754
     70 Cl28       12.3170   -7.5310   24.6140 Cl        1 M34     -0.070834
     71 C30        13.1970   -8.9650   22.4630 C.ar      1 M34     -0.068694
     72 H30        13.8050   -8.1000   22.2440 H         1 M34      0.137325
@<TRIPOS>BOND
     1    1    2 1   
     2    1    3 1   
     3    1    4 1   
     4    1    5 1   
     5    4   16 2   
     6    4   17 2   
     7    4   18 1   
     8    5    6 ar  
     9    5   14 ar  
    10    6    7 1   
    11    6    8 ar  
    12    8    9 1   
    13    8   10 ar  
    14   10   11 1   
    15   10   12 ar  
    16   12   13 1   
    17   12   14 ar  
    18   14   15 1   
    19   18   19 1   
    20   18   20 1   
    21   20   21 1   
    22   20   22 1   
    23   20   35 1   
    24   22   23 1   
    25   22   24 1   
    26   22   25 1   
    27   25   26 1   
    28   25   27 1   
    29   25   31 1   
    30   27   28 1   
    31   27   29 1   
    32   27   30 1   
    33   31   32 1   
    34   31   33 1   
    35   31   34 1   
    36   35   36 2   
    37   35   37 am  
    38   37   38 1   
    39   37   48 1   
    40   38   39 1   
    41   38   40 1   
    42   38   42 1   
    43   40   41 2   
    44   40   51 am  
    45   42   43 1   
    46   42   44 1   
    47   42   45 1   
    48   45   46 1   
    49   45   47 1   
    50   45   48 1   
    51   48   49 1   
    52   48   50 1   
    53   51   52 1   
    54   51   53 1   
    55   53   54 1   
    56   53   55 1   
    57   53   56 1   
    58   56   57 ar  
    59   56   71 ar  
    60   57   58 1   
    61   57   65 ar  
    62   58   59 1   
    63   58   60 1   
    64   58   61 1   
    65   61   62 1   
    66   61   63 1   
    67   61   64 1   
    68   65   66 1   
    69   65   67 ar  
    70   67   68 1   
    71   67   69 ar  
    72   69   70 1   
    73   69   71 ar  
    74   71   72 1   
@<TRIPOS>SUBSTRUCTURE
     1 M34         1 TEMP              0 ****  ****    0 ROOT
