@<TRIPOS>MOLECULE
3UTU.H
82 85 1 0 0 
SMALL
USER_CHARGES


@<TRIPOS>ATOM
  1 S8      18.0850   -16.3870    24.9640 S.o2  1 Q1T   0.9105 
  2 CL      20.8370   -12.1460    26.6850 Cl    1 Q1T  -0.1134 
  3 C35     19.5510   -15.4720    24.9520 C.ar  1 Q1T  -0.0427 
  4 C10     23.9730   -13.3580    24.1640 C.3   1 Q1T  -0.0094 
  5 H1      24.7820   -12.6580    24.3730 H     1 Q1T   0.0862 
  6 H2      23.6610   -13.2530    23.1250 H     1 Q1T   0.0862 
  7 H3      24.3200   -14.3770    24.3380 H     1 Q1T   0.0862 
  8 O9      22.9250   -13.0920    24.9790 O.3   1 Q1T  -0.3348 
  9 C5      21.8130   -13.8370    24.8930 C.ar  1 Q1T   0.4457 
 10 O1      18.4230   -17.3820    24.3800 O.2   1 Q1T  -0.4862 
 11 O10     17.6440   -16.3220    26.0080 O.2   1 Q1T  -0.4862 
 12 C7      20.5770   -15.7130    24.0780 C.ar  1 Q1T  -0.1693 
 13 H4      20.4900   -16.5340    23.3810 H     1 Q1T   0.2097 
 14 C3      19.6800   -14.3240    25.7610 C.ar  1 Q1T  -0.0370 
 15 H5      18.8870   -14.0510    26.4420 H     1 Q1T   0.1138 
 16 C6      21.7330   -14.9280    24.0610 C.ar  1 Q1T  -0.2407 
 17 H6      22.5530   -15.1750    23.4030 H     1 Q1T   0.1667 
 18 C4      20.7550   -13.5930    25.6870 C.ar  1 Q1T  -0.1169 
 19 C13     17.6640   -13.9570    22.3680 C.2   1 Q1T   0.3886 
 20 N11     17.1750   -15.7780    23.8350 N.am  1 Q1T  -0.6639 
 21 H7      16.8100   -14.9070    24.1930 H     1 Q1T   0.3978 
 22 O14     16.7870   -13.3640    22.8960 O.2   1 Q1T  -0.5526 
 23 C15     14.7330   -19.3660    22.1860 C.3   1 Q1T  -0.0296 
 24 H8      13.9120   -19.5030    21.4830 H     1 Q1T   0.1286 
 25 H9      15.5110   -20.1020    21.9830 H     1 Q1T   0.1286 
 26 C31     14.2280   -19.6180    23.4990 C.ar  1 Q1T   0.0238 
 27 C32     13.0220   -20.1390    23.6580 C.ar  1 Q1T  -0.1013 
 28 H10     12.4030   -20.3840    22.8080 H     1 Q1T   0.1419 
 29 C33     12.5970   -20.3510    24.9050 C.ar  1 Q1T  -0.1678 
 30 H11     11.5990   -20.7440    25.0320 H     1 Q1T   0.1728 
 31 C44     13.3220   -20.1100    26.0220 C.ar  1 Q1T   0.0065 
 32 C8      14.5730   -19.5710    25.8720 C.ar  1 Q1T  -0.1678 
 33 H12     15.1960   -19.2880    26.7070 H     1 Q1T   0.1728 
 34 C9      14.9450   -19.4300    24.6230 C.ar  1 Q1T  -0.1013 
 35 H13     15.9690   -19.1200    24.4750 H     1 Q1T   0.1419 
 36 C40     12.8160   -20.3110    27.1020 C.1   1 Q1T   0.3571 
 37 N63     12.3340   -20.3620    28.0940 N.1   1 Q1T  -0.4715 
 38 C45     17.6950   -15.5130    22.6230 C.3   1 Q1T   0.0382 
 39 H14     18.6930   -15.9510    22.6540 H     1 Q1T   0.1201 
 40 C12     16.8720   -16.1360    21.3880 C.3   1 Q1T  -0.1637 
 41 H15     17.4670   -16.0070    20.4840 H     1 Q1T   0.0841 
 42 H16     15.9380   -15.5830    21.2900 H     1 Q1T   0.0841 
 43 C46     16.5250   -17.6600    21.5310 C.2   1 Q1T   0.6470 
 44 O22     17.3940   -18.3810    21.3740 O.2   1 Q1T  -0.5496 
 45 N14     15.3170   -18.0060    21.9460 N.am  1 Q1T  -0.6054 
 46 H17     14.6910   -17.2350    22.1300 H     1 Q1T   0.3595 
 47 N15     18.5770   -13.4810    21.6180 N.am  1 Q1T   0.0112 
 48 C16     18.4480   -12.1770    21.1290 C.3   1 Q1T  -0.0707 
 49 H18     18.4840   -11.4340    21.9260 H     1 Q1T   0.1022 
 50 C17     17.1200   -12.1720    20.2810 C.2   1 Q1T   0.5611 
 51 O18     16.8440   -12.9880    19.4770 O.2   1 Q1T  -0.5629 
 52 C34     19.5280   -12.0160    20.0730 C.3   1 Q1T  -0.1747 
 53 H19     20.1510   -11.1530    20.3080 H     1 Q1T   0.0946 
 54 H20     19.0720   -11.8780    19.0930 H     1 Q1T   0.0946 
 55 C1      20.3560   -13.2590    20.0790 C.3   1 Q1T  -0.0007 
 56 H21     21.3380   -13.0600    20.5070 H     1 Q1T   0.0434 
 57 H22     20.4720   -13.6430    19.0660 H     1 Q1T   0.0434 
 58 C2      19.6190   -14.2220    20.9120 C.3   1 Q1T  -0.1825 
 59 H23     19.1690   -14.9900    20.2840 H     1 Q1T   0.1131 
 60 H24     20.2950   -14.6890    21.6290 H     1 Q1T   0.1131 
 61 N19     16.3280   -11.0690    20.4540 N.am  1 Q1T  -0.3572 
 62 H25     16.6490   -10.3510    21.0880 H     1 Q1T   0.2667 
 63 C20     15.0790   -10.8690    19.7970 C.3   1 Q1T  -0.0937 
 64 H26     14.9030   -11.6690    19.0780 H     1 Q1T   0.1106 
 65 H27     15.0790    -9.9100    19.2790 H     1 Q1T   0.1106 
 66 C21     14.0190   -10.8830    20.8490 C.ar  1 Q1T   0.0837 
 67 C26     13.4110    -9.7610    21.3260 C.ar  1 Q1T  -0.1127 
 68 H28     13.7080    -8.8110    20.9070 H     1 Q1T   0.1652 
 69 C25     12.5010    -9.7550    22.2480 C.ar  1 Q1T  -0.1668 
 70 H29     12.0700    -8.8070    22.5360 H     1 Q1T   0.1564 
 71 C24     12.0730   -10.8450    22.8530 C.ar  1 Q1T   0.0252 
 72 C27     11.0670   -10.8660    23.8680 C.cat 1 Q1T   0.3840 
 73 N29     10.8020    -9.8930    24.4720 N.pl3 1 Q1T  -0.5845 
 74 H30     10.0600    -9.9100    25.1570 H     1 Q1T   0.3706 
 75 H31     11.3160    -9.0400    24.3060 H     1 Q1T   0.3706 
 76 N28     10.3980   -11.9280    24.1010 N.pl3 1 Q1T  -0.5845 
 77 H33     10.6060   -12.7770    23.5950 H     1 Q1T   0.3706 
 78 H32      9.6610   -11.9190    24.7910 H     1 Q1T   0.3706 
 79 C23     12.6730   -11.9760    22.4630 C.ar  1 Q1T  -0.1668 
 80 H34     12.4090   -12.9130    22.9310 H     1 Q1T   0.1564 
 81 C22     13.5990   -11.9520    21.4950 C.ar  1 Q1T  -0.1127 
 82 H35     14.0430   -12.8970    21.2180 H     1 Q1T   0.1652 
@<TRIPOS>BOND
  1   1   3  1   
  2   1  10  2   
  3   1  11  2   
  4   1  20  am  
  5   2  18  1   
  6   3  12  ar  
  7   3  14  ar  
  8   4   5  1   
  9   4   6  1   
 10   4   7  1   
 11   4   8  1   
 12   8   9  1   
 13   9  16  ar  
 14   9  18  ar  
 15  12  13  1   
 16  12  16  ar  
 17  14  15  1   
 18  14  18  ar  
 19  16  17  1   
 20  19  22  2   
 21  19  38  1   
 22  19  47  am  
 23  20  21  1   
 24  20  38  1   
 25  23  24  1   
 26  23  25  1   
 27  23  26  1   
 28  23  45  1   
 29  26  27  ar  
 30  26  34  ar  
 31  27  28  1   
 32  27  29  ar  
 33  29  30  1   
 34  29  31  ar  
 35  31  32  ar  
 36  31  36  1   
 37  32  33  1   
 38  32  34  ar  
 39  34  35  1   
 40  36  37  3   
 41  38  39  1   
 42  38  40  1   
 43  40  41  1   
 44  40  42  1   
 45  40  43  1   
 46  43  44  2   
 47  43  45  am  
 48  45  46  1   
 49  47  48  1   
 50  47  58  1   
 51  48  49  1   
 52  48  50  1   
 53  48  52  1   
 54  50  51  2   
 55  50  61  am  
 56  52  53  1   
 57  52  54  1   
 58  52  55  1   
 59  55  56  1   
 60  55  57  1   
 61  55  58  1   
 62  58  59  1   
 63  58  60  1   
 64  61  62  1   
 65  61  63  1   
 66  63  64  1   
 67  63  65  1   
 68  63  66  1   
 69  66  67  ar  
 70  66  81  ar  
 71  67  68  1   
 72  67  69  ar  
 73  69  70  1   
 74  69  71  ar  
 75  71  72  1   
 76  71  79  ar  
 77  72  73  ar  
 78  72  76  ar  
 79  73  74  1   
 80  73  75  1   
 81  76  77  1   
 82  76  78  1   
 83  79  80  1   
 84  79  81  ar  
 85  81  82  1   
@<TRIPOS>SUBSTRUCTURE
  1 Q1T  20 GROUP 4 H **** 0

# MOE 2015.10 (io_trps.svl 2015.10)
