@<TRIPOS>MOLECULE
3UWJ.H
   72    74     1     0     0
SMALL
No Charge or Current Charge


@<TRIPOS>ATOM
      1 C7         14.8430  -15.7840   21.1320 C.3       1 TIF     -0.348260
      2 H71        15.6100  -15.2170   20.6050 H         1 TIF      0.173122
      3 H72        14.3480  -15.1390   21.8580 H         1 TIF      0.173122
      4 S8         15.5710  -17.0590   21.9450 S.o2      1 TIF      0.871224
      5 C4         13.8190  -16.2720   20.1310 C.ar      1 TIF      0.099167
      6 C5         12.4850  -16.3900   20.5050 C.ar      1 TIF     -0.111850
      7 H5         12.1830  -16.1310   21.5090 H         1 TIF      0.140090
      8 C6         11.5400  -16.8390   19.5940 C.ar      1 TIF     -0.197317
      9 H6         10.5060  -16.9290   19.8920 H         1 TIF      0.161064
     10 C1         11.9190  -17.1730   18.3000 C.ar      1 TIF     -0.080250
     11 H1         11.1840  -17.5260   17.5910 H         1 TIF      0.141727
     12 C2         13.2500  -17.0490   17.9250 C.ar      1 TIF     -0.197317
     13 H2         13.5490  -17.3050   16.9190 H         1 TIF      0.161064
     14 C3         14.2020  -16.5980   18.8350 C.ar      1 TIF     -0.111850
     15 H3         15.2350  -16.5020   18.5350 H         1 TIF      0.140090
     16 O22        16.3970  -17.8090   21.0310 O.2       1 TIF     -0.482881
     17 O23        14.5190  -17.8430   22.5220 O.2       1 TIF     -0.482881
     18 N9         16.4520  -16.4460   23.1400 N.3       1 TIF     -0.577577
     19 H9         16.6280  -17.2190   23.7660 H         1 TIF      0.381729
     20 C10        17.7330  -15.7770   22.9870 C.3       1 TIF      0.023618
     21 H10        18.3550  -16.4250   22.3690 H         1 TIF      0.116239
     22 C18        18.4130  -15.5580   24.3440 C.3       1 TIF     -0.091305
     23 H181       18.5380  -16.5240   24.8330 H         1 TIF      0.053436
     24 H182       17.7750  -14.9210   24.9570 H         1 TIF      0.053436
     25 C19        19.7860  -14.8940   24.2060 C.3       1 TIF      0.259593
     26 H19        19.6820  -14.1400   23.4260 H         1 TIF     -0.041258
     27 C20        20.2240  -14.1590   25.4710 C.3       1 TIF     -0.230653
     28 H201       20.3420  -14.8750   26.2850 H         1 TIF      0.058550
     29 H202       19.4690  -13.4220   25.7430 H         1 TIF      0.058550
     30 H203       21.1740  -13.6560   25.2890 H         1 TIF      0.058550
     31 C21        20.8460  -15.9030   23.7720 C.3       1 TIF     -0.230653
     32 H211       20.9610  -16.6640   24.5440 H         1 TIF      0.058550
     33 H212       21.7960  -15.3900   23.6230 H         1 TIF      0.058550
     34 H213       20.5380  -16.3750   22.8390 H         1 TIF      0.058550
     35 C11        17.5680  -14.4340   22.3120 C.2       1 TIF      0.354786
     36 O17        16.6090  -13.7170   22.5970 O.2       1 TIF     -0.512046
     37 N12        18.4640  -14.0300   21.4120 N.am      1 TIF     -0.047185
     38 C13        18.2920  -12.7350   20.7490 C.3       1 TIF     -0.022037
     39 H13        18.3260  -11.9140   21.4650 H         1 TIF      0.054515
     40 C24        16.9600  -12.6890   20.0500 C.2       1 TIF      0.662788
     41 O33        16.5660  -13.6460   19.3920 O.2       1 TIF     -0.542319
     42 C14        19.4120  -12.6330   19.7220 C.3       1 TIF     -0.104724
     43 H141       19.9590  -11.7000   19.8550 H         1 TIF      0.065104
     44 H142       19.0010  -12.6730   18.7130 H         1 TIF      0.065104
     45 C15        20.3300  -13.8160   19.9600 C.3       1 TIF     -0.007402
     46 H151       21.2790  -13.4700   20.3700 H         1 TIF      0.040712
     47 H152       20.5090  -14.3390   19.0210 H         1 TIF      0.040712
     48 C16        19.6520  -14.7510   20.9490 C.3       1 TIF     -0.036558
     49 H161       19.3670  -15.6820   20.4600 H         1 TIF      0.040923
     50 H162       20.3160  -14.9690   21.7850 H         1 TIF      0.040923
     51 N25        16.2230  -11.5800   20.1850 N.am      1 TIF     -0.604197
     52 H25        16.6020  -10.8250   20.7390 H         1 TIF      0.348595
     53 C26        14.9060  -11.3920   19.5820 C.3       1 TIF     -0.022476
     54 H261       14.7110  -12.1910   18.8670 H         1 TIF      0.119068
     55 H262       14.8690  -10.4300   19.0710 H         1 TIF      0.119068
     56 C27        13.8690  -11.4260   20.6820 C.ar      1 TIF      0.025851
     57 C32        13.6630  -10.3140   21.4910 C.ar      1 TIF     -0.110988
     58 H32        14.2400   -9.4150   21.3310 H         1 TIF      0.161483
     59 C31        12.7160  -10.3590   22.5040 C.ar      1 TIF     -0.123034
     60 H31        12.5690   -9.4910   23.1300 H         1 TIF      0.138267
     61 C30        11.9540  -11.4950   22.7290 C.ar      1 TIF     -0.113954
     62 C34        10.9260  -11.5070   23.8190 C.2       1 TIF      0.680161
     63 N35        10.6640  -10.4300   24.4480 N.3       1 TIF     -0.759802
     64 H351        9.9590  -10.4260   25.1720 H         1 TIF      0.406691
     65 H352       11.1610   -9.5800   24.2230 H         1 TIF      0.406691
     66 N36        10.2610  -12.6240   24.1270 N.3       1 TIF     -0.759802
     67 H362       10.4610  -13.4830   23.6350 H         1 TIF      0.406691
     68 H361        9.5580  -12.6100   24.8520 H         1 TIF      0.406691
     69 C29        12.1570  -12.6090   21.9130 C.ar      1 TIF     -0.123034
     70 H29        11.5750  -13.5050   22.0700 H         1 TIF      0.138267
     71 C28        13.1070  -12.5690   20.8980 C.ar      1 TIF     -0.110988
     72 H28        13.2550  -13.4350   20.2700 H         1 TIF      0.161483
@<TRIPOS>BOND
     1    1    2 1   
     2    1    3 1   
     3    1    4 1   
     4    1    5 1   
     5    4   16 2   
     6    4   17 2   
     7    4   18 1   
     8    5    6 ar  
     9    5   14 ar  
    10    6    7 1   
    11    6    8 ar  
    12    8    9 1   
    13    8   10 ar  
    14   10   11 1   
    15   10   12 ar  
    16   12   13 1   
    17   12   14 ar  
    18   14   15 1   
    19   18   19 1   
    20   18   20 1   
    21   20   21 1   
    22   20   22 1   
    23   20   35 1   
    24   22   23 1   
    25   22   24 1   
    26   22   25 1   
    27   25   26 1   
    28   25   27 1   
    29   25   31 1   
    30   27   28 1   
    31   27   29 1   
    32   27   30 1   
    33   31   32 1   
    34   31   33 1   
    35   31   34 1   
    36   35   36 2   
    37   35   37 am  
    38   37   38 1   
    39   37   48 1   
    40   38   39 1   
    41   38   40 1   
    42   38   42 1   
    43   40   41 2   
    44   40   51 am  
    45   42   43 1   
    46   42   44 1   
    47   42   45 1   
    48   45   46 1   
    49   45   47 1   
    50   45   48 1   
    51   48   49 1   
    52   48   50 1   
    53   51   52 1   
    54   51   53 1   
    55   53   54 1   
    56   53   55 1   
    57   53   56 1   
    58   56   57 ar  
    59   56   71 ar  
    60   57   58 1   
    61   57   59 ar  
    62   59   60 1   
    63   59   61 ar  
    64   61   62 1   
    65   61   69 ar  
    66   62   63 2   
    67   62   66 1   
    68   63   64 1   
    69   63   65 1   
    70   66   67 1   
    71   66   68 1   
    72   69   70 1   
    73   69   71 ar  
    74   71   72 1   
@<TRIPOS>SUBSTRUCTURE
     1 TIF         1 TEMP              0 ****  ****    0 ROOT
