@<TRIPOS>MOLECULE
4BAH.B
   63    65     1     0     0
SMALL
No Charge or Current Charge


@<TRIPOS>ATOM
      1 C1         18.8170  -14.4230   24.3390 C.3       1 MEL     -0.004536
      2 H1         18.0630  -13.8480   24.8760 H         1 MEL      0.070492
      3 C2         19.0530  -15.7530   25.0720 C.3       1 MEL     -0.060727
      4 H2         19.8190  -16.3280   24.5510 H         1 MEL      0.037321
      5 H3         18.1260  -16.3250   25.1020 H         1 MEL      0.037321
      6 C3         19.5190  -15.4480   26.5040 C.3       1 MEL      0.000807
      7 H4         19.7060  -16.3870   27.0250 H         1 MEL      0.008640
      8 H5         18.7360  -14.8940   27.0230 H         1 MEL      0.008640
      9 C4         20.8090  -14.6100   26.5010 C.3       1 MEL     -0.014682
     10 H6         21.6020  -15.1800   26.0170 H         1 MEL      0.028379
     11 H7         21.0940  -14.3930   27.5300 H         1 MEL      0.028379
     12 C5         20.6120  -13.2860   25.7470 C.3       1 MEL      0.000807
     13 H8         21.5600  -12.7510   25.6990 H         1 MEL      0.008640
     14 H9         19.8760  -12.6760   26.2700 H         1 MEL      0.008640
     15 C6         20.1140  -13.5790   24.3180 C.3       1 MEL     -0.060727
     16 H10        19.9160  -12.6350   23.8100 H         1 MEL      0.037321
     17 H11        20.8860  -14.1270   23.7780 H         1 MEL      0.037321
     18 N7         17.0340  -15.4950   22.9870 N.4       1 MEL     -0.003980
     19 H13        17.2560  -16.3640   23.4520 H         1 MEL      0.207957
     20 H12        16.3620  -14.9800   23.5380 H         1 MEL      0.207957
     21 C8         18.2790  -14.6860   22.9180 C.3       1 MEL     -0.045862
     22 C9         17.9420  -13.3730   22.2630 C.2       1 MEL      0.360216
     23 O0         16.8930  -12.8090   22.5600 O.2       1 MEL     -0.523610
     24 N11        18.7350  -12.7990   21.3370 N.am      1 MEL     -0.028353
     25 C12        18.5020  -11.6230   20.4940 C.3       1 MEL     -0.066512
     26 C13        17.1070  -11.7900   19.9020 C.2       1 MEL      0.515032
     27 O14        16.7900  -12.8720   19.4230 O.2       1 MEL     -0.509473
     28 N15        16.1760  -10.8150   20.0040 N.am      1 MEL     -0.338558
     29 H14        16.4000   -9.9280   20.4330 H         1 MEL      0.233192
     30 C16        14.8250  -11.0780   19.4730 C.3       1 MEL     -0.091996
     31 H15        14.7950  -12.0680   19.0170 H         1 MEL      0.110695
     32 H16        14.5700  -10.3260   18.7260 H         1 MEL      0.110695
     33 C17        13.8440  -11.0140   20.6130 C.ar      1 MEL      0.071339
     34 C18        13.4640  -12.1670   21.2840 C.ar      1 MEL     -0.123568
     35 H17        13.8510  -13.1270   20.9750 H         1 MEL      0.159631
     36 C19        12.5810  -12.0810   22.3580 C.ar      1 MEL     -0.126846
     37 H18        12.2680  -12.9750   22.8760 H         1 MEL      0.139942
     38 C20        12.0990  -10.8210   22.7640 C.ar      1 MEL     -0.124129
     39 C21        12.4940   -9.6610   22.0740 C.ar      1 MEL     -0.126846
     40 H19        12.1000   -8.6960   22.3580 H         1 MEL      0.139942
     41 C22        13.3900   -9.7690   21.0310 C.ar      1 MEL     -0.123568
     42 H20        13.7420   -8.8770   20.5340 H         1 MEL      0.159631
     43 C23        11.1190  -10.7320   23.8780 C.2       1 MEL      0.750340
     44 N24        10.8890   -9.5960   24.4700 N.3       1 MEL     -0.788079
     45 H21        10.1940   -9.5390   25.2010 H         1 MEL      0.407616
     46 H22        11.4050   -8.7710   24.1990 H         1 MEL      0.407616
     47 N25        10.3990  -11.8540   24.2650 N.3       1 MEL     -0.788079
     48 H24        10.5670  -12.7420   23.8140 H         1 MEL      0.407616
     49 H23         9.7070  -11.7820   24.9970 H         1 MEL      0.407616
     50 C26        19.6700  -12.0180   19.5700 C.3       1 MEL     -0.057610
     51 H25        20.4380  -11.2550   19.4480 H         1 MEL      0.061861
     52 H26        19.3750  -12.3960   18.5910 H         1 MEL      0.061861
     53 C27        19.9900  -13.0980   20.6110 C.3       1 MEL     -0.026905
     54 H27        20.0340  -14.1070   20.2020 H         1 MEL      0.059782
     55 H28        20.8930  -12.9010   21.1890 H         1 MEL      0.059782
     56 C28        16.3970  -15.8260   21.6860 C.3       1 MEL      0.004671
     57 H29        16.9950  -16.5850   21.1810 H         1 MEL      0.069949
     58 H30        16.3570  -14.9270   21.0710 H         1 MEL      0.069949
     59 C29        14.9890  -16.3550   21.8810 C.2       1 MEL      0.622357
     60 O30        14.5300  -16.5920   22.9810 O.co2     1 MEL     -0.642044
     61 O31        14.2300  -16.5970   20.8100 O.co2     1 MEL     -0.642044
     62 H31        19.0300  -15.2200   22.3380 H         1 MEL      0.092218
     63 H32        18.6260  -10.6720   21.0050 H         1 MEL      0.106563
@<TRIPOS>BOND
     1    1    2 1   
     2    1    3 1   
     3    1   15 1   
     4    1   21 1   
     5    3    4 1   
     6    3    5 1   
     7    3    6 1   
     8    6    7 1   
     9    6    8 1   
    10    6    9 1   
    11    9   10 1   
    12    9   11 1   
    13    9   12 1   
    14   12   13 1   
    15   12   14 1   
    16   12   15 1   
    17   15   16 1   
    18   15   17 1   
    19   18   19 1   
    20   18   20 1   
    21   18   21 1   
    22   18   56 1   
    23   21   22 1   
    24   21   62 1   
    25   22   23 2   
    26   22   24 am  
    27   24   25 1   
    28   24   53 1   
    29   25   26 1   
    30   25   50 1   
    31   25   63 1   
    32   26   27 2   
    33   26   28 am  
    34   28   29 1   
    35   28   30 1   
    36   30   31 1   
    37   30   32 1   
    38   30   33 1   
    39   33   34 ar  
    40   33   41 ar  
    41   34   35 1   
    42   34   36 ar  
    43   36   37 1   
    44   36   38 ar  
    45   38   39 ar  
    46   38   43 1   
    47   39   40 1   
    48   39   41 ar  
    49   41   42 1   
    50   43   44 2   
    51   43   47 1   
    52   44   45 1   
    53   44   46 1   
    54   47   48 1   
    55   47   49 1   
    56   50   51 1   
    57   50   52 1   
    58   50   53 1   
    59   53   54 1   
    60   53   55 1   
    61   56   57 1   
    62   56   58 1   
    63   56   59 1   
    64   59   60 1   
    65   59   61 1   
@<TRIPOS>SUBSTRUCTURE
     1 MEL         1 TEMP              0 ****  ****    0 ROOT
