@<TRIPOS>MOLECULE
4BAK.B
   74    76     1     0     0
SMALL
No Charge or Current Charge


@<TRIPOS>ATOM
      1 C1         12.2020  -14.9350   19.4280 C.3       1 M67     -0.054607
      2 H1         11.4950  -14.1110   19.5200 H         1 M67      0.029914
      3 H2         11.9770  -15.5070   18.5280 H         1 M67      0.029914
      4 H3         13.2160  -14.5390   19.3630 H         1 M67      0.029914
      5 C2         12.0870  -15.8450   20.6530 C.3       1 M67     -0.004096
      6 H4         11.0710  -16.2350   20.7150 H         1 M67      0.041327
      7 H5         12.3090  -15.2670   21.5500 H         1 M67      0.041327
      8 C3         13.0710  -17.0160   20.5520 C.3       1 M67     -0.038502
      9 H6         12.9160  -17.5350   19.6060 H         1 M67      0.101022
     10 H7         12.8950  -17.7060   21.3780 H         1 M67      0.101022
     11 N4         14.4570  -16.5260   20.6160 N.am      1 M67     -0.547652
     12 H8         14.9670  -16.4230   19.7500 H         1 M67      0.351978
     13 C5         15.0830  -16.2070   21.7670 C.2       1 M67      0.564934
     14 O6         14.5200  -16.3220   22.8490 O.2       1 M67     -0.566794
     15 C7         16.5080  -15.7250   21.6520 C.3       1 M67      0.030012
     16 H9         16.5280  -14.8270   21.0340 H         1 M67      0.082249
     17 H10        17.1070  -16.5040   21.1800 H         1 M67      0.082249
     18 N8         17.0910  -15.4080   22.9770 N.4       1 M67      0.018951
     19 H11        17.2880  -16.2780   23.4500 H         1 M67      0.202071
     20 H12        16.4070  -14.8850   23.5050 H         1 M67      0.202071
     21 C9         18.3430  -14.6140   22.9310 C.3       1 M67     -0.126927
     22 C11        18.8730  -14.3340   24.3520 C.3       1 M67      0.001866
     23 H13        18.1250  -13.7460   24.8840 H         1 M67      0.058087
     24 C12        19.1140  -15.6620   25.0910 C.3       1 M67     -0.050306
     25 H14        19.8440  -16.2550   24.5400 H         1 M67      0.061298
     26 H15        18.1760  -16.2130   25.1590 H         1 M67      0.061298
     27 C13        19.6460  -15.3870   26.5060 C.3       1 M67     -0.054765
     28 H16        19.8120  -16.3350   27.0170 H         1 M67      0.021272
     29 H17        18.9110  -14.8010   27.0580 H         1 M67      0.021272
     30 C14        20.9690  -14.6080   26.4450 C.3       1 M67      0.017589
     31 H18        21.7130  -15.2070   25.9200 H         1 M67      0.037625
     32 H19        21.3140  -14.4080   27.4600 H         1 M67      0.037625
     33 C15        20.7810  -13.2760   25.7050 C.3       1 M67     -0.054765
     34 H20        21.7460  -12.7790   25.6060 H         1 M67      0.021272
     35 H21        20.1020  -12.6410   26.2730 H         1 M67      0.021272
     36 C16        20.1910  -13.5270   24.3030 C.3       1 M67     -0.050306
     37 H22        19.9950  -12.5650   23.8290 H         1 M67      0.061298
     38 H23        20.9190  -14.0820   23.7110 H         1 M67      0.061298
     39 C17        18.0160  -13.3180   22.2410 C.2       1 M67      0.227014
     40 O18        16.9410  -12.7670   22.4860 O.2       1 M67     -0.444198
     41 N19        18.8320  -12.7660   21.3190 N.am      1 M67     -0.044207
     42 C20        20.1090  -13.0610   20.6390 C.3       1 M67      0.029387
     43 H24        20.1850  -14.0820   20.2660 H         1 M67      0.063940
     44 H25        20.9910  -12.8260   21.2350 H         1 M67      0.063940
     45 C21        19.7980  -12.0240   19.5530 C.3       1 M67     -0.089167
     46 H26        19.5020  -12.4390   18.5900 H         1 M67      0.093058
     47 H27        20.5690  -11.2690   19.4020 H         1 M67      0.093058
     48 C22        18.6350  -11.5930   20.4600 C.3       1 M67     -0.115911
     49 C24        17.2470  -11.7400   19.8720 C.2       1 M67      0.529948
     50 O25        16.9370  -12.8030   19.3720 O.2       1 M67     -0.514810
     51 N26        16.3190  -10.7780   20.0260 N.am      1 M67     -0.434863
     52 H28        16.5400   -9.9190   20.5090 H         1 M67      0.323180
     53 C27        14.9780  -11.0060   19.4760 C.3       1 M67     -0.042137
     54 H29        14.9330  -11.9870   19.0030 H         1 M67      0.124325
     55 H30        14.7440  -10.2370   18.7400 H         1 M67      0.124325
     56 C28        13.9980  -10.9420   20.6110 C.ar      1 M67      0.050543
     57 C29        13.7170  -12.0860   21.3400 C.ar      1 M67     -0.110510
     58 H31        14.1980  -13.0210   21.0930 H         1 M67      0.152752
     59 C30        12.8140  -12.0210   22.3880 C.ar      1 M67     -0.128265
     60 H32        12.5760  -12.9110   22.9520 H         1 M67      0.155360
     61 C31        12.2070  -10.7950   22.7170 C.ar      1 M67     -0.114300
     62 C32        12.4930   -9.6410   21.9700 C.ar      1 M67     -0.128265
     63 H33        12.0060   -8.7040   22.1980 H         1 M67      0.155360
     64 C33        13.4110   -9.7240   20.9350 C.ar      1 M67     -0.110510
     65 H34        13.6720   -8.8370   20.3770 H         1 M67      0.152752
     66 C34        11.2070  -10.7410   23.8140 C.2       1 M67      0.714166
     67 N35        10.5160  -11.8100   24.1380 N.3       1 M67     -0.813255
     68 H35         9.8030  -11.7530   24.8510 H         1 M67      0.440479
     69 H36        10.6980  -12.6890   23.6740 H         1 M67      0.440479
     70 N36        10.9460   -9.5540   24.4550 N.3       1 M67     -0.813255
     71 H38        11.4700   -8.7250   24.2150 H         1 M67      0.440479
     72 H37        10.2300   -9.5110   25.1660 H         1 M67      0.440479
     73 H39        19.0980  -15.1630   22.3690 H         1 M67      0.123490
     74 H40        18.7780  -10.6370   20.9590 H         1 M67      0.121832
@<TRIPOS>BOND
     1    1    2 1   
     2    1    3 1   
     3    1    4 1   
     4    1    5 1   
     5    5    6 1   
     6    5    7 1   
     7    5    8 1   
     8    8    9 1   
     9    8   10 1   
    10    8   11 1   
    11   11   12 1   
    12   11   13 am  
    13   13   14 2   
    14   13   15 1   
    15   15   16 1   
    16   15   17 1   
    17   15   18 1   
    18   18   19 1   
    19   18   20 1   
    20   18   21 1   
    21   21   22 1   
    22   21   39 1   
    23   21   73 1   
    24   22   23 1   
    25   22   24 1   
    26   22   36 1   
    27   24   25 1   
    28   24   26 1   
    29   24   27 1   
    30   27   28 1   
    31   27   29 1   
    32   27   30 1   
    33   30   31 1   
    34   30   32 1   
    35   30   33 1   
    36   33   34 1   
    37   33   35 1   
    38   33   36 1   
    39   36   37 1   
    40   36   38 1   
    41   39   40 2   
    42   39   41 am  
    43   41   42 1   
    44   41   48 1   
    45   42   43 1   
    46   42   44 1   
    47   42   45 1   
    48   45   46 1   
    49   45   47 1   
    50   45   48 1   
    51   48   49 1   
    52   48   74 1   
    53   49   50 2   
    54   49   51 am  
    55   51   52 1   
    56   51   53 1   
    57   53   54 1   
    58   53   55 1   
    59   53   56 1   
    60   56   57 ar  
    61   56   64 ar  
    62   57   58 1   
    63   57   59 ar  
    64   59   60 1   
    65   59   61 ar  
    66   61   62 ar  
    67   61   66 1   
    68   62   63 1   
    69   62   64 ar  
    70   64   65 1   
    71   66   67 2   
    72   66   70 1   
    73   67   68 1   
    74   67   69 1   
    75   70   71 1   
    76   70   72 1   
@<TRIPOS>SUBSTRUCTURE
     1 M67         1 TEMP              0 ****  ****    0 ROOT
