@<TRIPOS>MOLECULE
4BAM.B
   71    73     1     0     0
SMALL
No Charge or Current Charge


@<TRIPOS>ATOM
      1 C1         18.7580  -14.4100   24.2350 C.3       1 MM9     -0.011700
      2 H1         18.0570  -13.7790   24.7820 H         1 MM9      0.049615
      3 C2         18.8850  -15.7670   24.9610 C.3       1 MM9     -0.026409
      4 H2         19.5390  -16.4200   24.3830 H         1 MM9      0.025176
      5 H3         17.8970  -16.2210   25.0420 H         1 MM9      0.025176
      6 C3         19.4730  -15.5880   26.3700 C.3       1 MM9     -0.031594
      7 H4         19.6140  -16.5680   26.8250 H         1 MM9      0.029612
      8 H5         18.7790  -15.0030   26.9740 H         1 MM9      0.029612
      9 C4         20.8280  -14.8600   26.3120 C.3       1 MM9     -0.006138
     10 H6         21.5370  -15.4690   25.7520 H         1 MM9      0.026234
     11 H7         21.1980  -14.7130   27.3270 H         1 MM9      0.026234
     12 C5         20.6840  -13.4900   25.6230 C.3       1 MM9     -0.031594
     13 H8         21.6590  -13.0050   25.5670 H         1 MM9      0.029612
     14 H9         19.9990  -12.8640   26.1950 H         1 MM9      0.029612
     15 C6         20.1280  -13.6970   24.2010 C.3       1 MM9     -0.026409
     16 H10        20.0120  -12.7260   23.7200 H         1 MM9      0.025176
     17 H11        20.8300  -14.3040   23.6290 H         1 MM9      0.025176
     18 N7         16.9340  -15.3900   22.8200 N.4       1 MM9     -0.023594
     19 H12        16.2560  -14.8680   23.3560 H         1 MM9      0.234339
     20 H71        17.1650  -16.2880   23.2200 H         1 MM9      0.234339
     21 C8         18.2000  -14.6130   22.8030 C.3       1 MM9     -0.020966
     22 C9         17.9120  -13.2740   22.1670 C.2       1 MM9      0.337398
     23 O0         16.8690  -12.6920   22.4490 O.2       1 MM9     -0.500264
     24 N11        18.7370  -12.6980   21.2700 N.am      1 MM9     -0.114686
     25 C12        18.5550  -11.5070   20.4350 C.3       1 MM9     -0.051426
     26 C13        17.1810  -11.6540   19.8010 C.2       1 MM9      0.511401
     27 O14        16.8790  -12.6960   19.2430 O.2       1 MM9     -0.494168
     28 N15        16.2590  -10.6940   19.9950 N.am      1 MM9     -0.456196
     29 H13        16.5050   -9.8630   20.5140 H         1 MM9      0.297152
     30 C16        14.9020  -10.8410   19.4620 C.3       1 MM9      0.071437
     31 H14        14.8150  -11.7860   18.9250 H         1 MM9      0.080630
     32 H15        14.6790  -10.0160   18.7850 H         1 MM9      0.080630
     33 C17        13.9440  -10.8230   20.6240 C.ar      1 MM9      0.075025
     34 C18        13.3340   -9.6230   20.9720 C.ar      1 MM9     -0.125216
     35 H16        13.5570   -8.7250   20.4150 H         1 MM9      0.152057
     36 C19        12.4450   -9.5740   22.0260 C.ar      1 MM9     -0.127620
     37 H17        11.9310   -8.6540   22.2640 H         1 MM9      0.158774
     38 C20        12.2150  -10.7340   22.7870 C.ar      1 MM9     -0.129829
     39 C21        12.8420  -11.9450   22.4370 C.ar      1 MM9     -0.127620
     40 H18        12.6580  -12.8400   23.0120 H         1 MM9      0.158774
     41 C22        13.7010  -11.9780   21.3440 C.ar      1 MM9     -0.125216
     42 H19        14.1770  -12.9040   21.0580 H         1 MM9      0.152057
     43 C23        11.2270  -10.6890   23.8950 C.2       1 MM9      0.699204
     44 N24        10.9340   -9.5600   24.4770 N.3       1 MM9     -0.786453
     45 H20        10.2180   -9.5300   25.1890 H         1 MM9      0.436462
     46 H21        11.4230   -8.7160   24.2160 H         1 MM9      0.436462
     47 N25        10.5360  -11.8340   24.2760 N.3       1 MM9     -0.786453
     48 H22        10.7460  -12.7200   23.8390 H         1 MM9      0.436462
     49 H23         9.8240  -11.7800   24.9900 H         1 MM9      0.436462
     50 C26        19.7440  -11.8950   19.5470 C.3       1 MM9     -0.102581
     51 H24        20.5400  -11.1530   19.4940 H         1 MM9      0.095977
     52 H25        19.4800  -12.2180   18.5400 H         1 MM9      0.095977
     53 C27        19.9830  -13.0310   20.5500 C.3       1 MM9     -0.025470
     54 H26        19.9800  -14.0240   20.1000 H         1 MM9      0.079799
     55 H27        20.8850  -12.9070   21.1490 H         1 MM9      0.079799
     56 C28        16.3400  -15.6770   21.4820 C.3       1 MM9      0.043954
     57 H28        16.6910  -16.6510   21.1390 H         1 MM9      0.065258
     58 H29        16.6600  -14.9080   20.7790 H         1 MM9      0.065258
     59 C10        14.6100  -15.5200   19.0600 C.3       1 MM9     -0.159200
     60 H30        15.6980  -15.5390   19.1230 H         1 MM9      0.104008
     61 H31        14.2890  -14.5900   18.5900 H         1 MM9      0.104008
     62 H32        14.2650  -16.3660   18.4650 H         1 MM9      0.104008
     63 C29        14.8200  -15.6910   21.5430 C.2       1 MM9      0.421423
     64 O30        14.2730  -15.7660   22.6390 O.2       1 MM9     -0.527009
     65 C30        12.5630  -15.5960   20.5270 C.3       1 MM9     -0.159200
     66 H33        12.1240  -15.5260   19.5320 H         1 MM9      0.104008
     67 H34        12.2500  -14.7390   21.1230 H         1 MM9      0.104008
     68 H35        12.2270  -16.5150   21.0080 H         1 MM9      0.104008
     69 N2         14.0380  -15.6080   20.4160 N.am      1 MM9     -0.116078
     70 H36        18.6680  -10.5660   20.9660 H         1 MM9      0.101343
     71 H37        18.9340  -15.1630   22.2160 H         1 MM9      0.109953
@<TRIPOS>BOND
     1    1    2 1   
     2    1    3 1   
     3    1   15 1   
     4    1   21 1   
     5    3    4 1   
     6    3    5 1   
     7    3    6 1   
     8    6    7 1   
     9    6    8 1   
    10    6    9 1   
    11    9   10 1   
    12    9   11 1   
    13    9   12 1   
    14   12   13 1   
    15   12   14 1   
    16   12   15 1   
    17   15   16 1   
    18   15   17 1   
    19   18   19 1   
    20   18   20 1   
    21   18   21 1   
    22   18   56 1   
    23   21   22 1   
    24   21   71 1   
    25   22   23 2   
    26   22   24 am  
    27   24   25 1   
    28   24   53 1   
    29   25   26 1   
    30   25   50 1   
    31   25   70 1   
    32   26   27 2   
    33   26   28 am  
    34   28   29 1   
    35   28   30 1   
    36   30   31 1   
    37   30   32 1   
    38   30   33 1   
    39   33   34 ar  
    40   33   41 ar  
    41   34   35 1   
    42   34   36 ar  
    43   36   37 1   
    44   36   38 ar  
    45   38   39 ar  
    46   38   43 1   
    47   39   40 1   
    48   39   41 ar  
    49   41   42 1   
    50   43   44 2   
    51   43   47 1   
    52   44   45 1   
    53   44   46 1   
    54   47   48 1   
    55   47   49 1   
    56   50   51 1   
    57   50   52 1   
    58   50   53 1   
    59   53   54 1   
    60   53   55 1   
    61   56   57 1   
    62   56   58 1   
    63   56   63 1   
    64   59   60 1   
    65   59   61 1   
    66   59   62 1   
    67   59   69 1   
    68   63   64 2   
    69   63   69 am  
    70   65   66 1   
    71   65   67 1   
    72   65   68 1   
    73   65   69 1   
@<TRIPOS>SUBSTRUCTURE
     1 MM9         1 TEMP              0 ****  ****    0 ROOT
