@<TRIPOS>MOLECULE
4BAN.B
   68    70     1     0     0
SMALL
No Charge or Current Charge


@<TRIPOS>ATOM
      1 C1         18.7550  -14.5330   24.3130 C.3       1 M6S     -0.090389
      2 H1         18.0150  -13.9700   24.8810 H         1 M6S      0.135603
      3 C2         18.9820  -15.9020   24.9910 C.3       1 M6S     -0.032789
      4 H2         19.6940  -16.4810   24.4040 H         1 M6S      0.046845
      5 H3         18.0350  -16.4390   25.0460 H         1 M6S      0.046845
      6 C3         19.5380  -15.7040   26.4150 C.3       1 M6S     -0.024328
      7 H4         19.7310  -16.6800   26.8600 H         1 M6S      0.021593
      8 H5         18.7990  -15.1720   27.0140 H         1 M6S      0.021593
      9 C4         20.8480  -14.8930   26.3990 C.3       1 M6S     -0.012495
     10 H6         21.6040  -15.4470   25.8420 H         1 M6S      0.038408
     11 H7         21.1880  -14.7440   27.4240 H         1 M6S      0.038408
     12 C5         20.6360  -13.5210   25.7340 C.3       1 M6S     -0.024328
     13 H8         21.5880  -12.9920   25.6800 H         1 M6S      0.021593
     14 H9         19.9290  -12.9370   26.3230 H         1 M6S      0.021593
     15 C6         20.0780  -13.7220   24.3110 C.3       1 M6S     -0.032789
     16 H10        19.8910  -12.7450   23.8650 H         1 M6S      0.046845
     17 H11        20.8180  -14.2570   23.7160 H         1 M6S      0.046845
     18 N7         16.9120  -15.4810   22.9110 N.4       1 M6S      0.051245
     19 H12        16.2300  -14.9240   23.4050 H         1 M6S      0.212233
     20 H71        17.1370  -16.3600   23.3550 H         1 M6S      0.212233
     21 C8         18.1870  -14.7150   22.8850 C.3       1 M6S     -0.223499
     22 C9         17.8930  -13.3740   22.2670 C.2       1 M6S      0.241258
     23 O0         16.8400  -12.8000   22.5530 O.2       1 M6S     -0.437371
     24 N11        18.7300  -12.7970   21.3670 N.am      1 M6S     -0.051374
     25 C12        18.5620  -11.5920   20.5480 C.3       1 M6S     -0.106268
     26 C13        17.1940  -11.7130   19.9190 C.2       1 M6S      0.517961
     27 O14        16.9030  -12.7360   19.3270 O.2       1 M6S     -0.517157
     28 N15        16.2630  -10.7680   20.1290 N.am      1 M6S     -0.420127
     29 H13        16.4750   -9.9400   20.6670 H         1 M6S      0.315763
     30 C16        14.9340  -10.9720   19.5560 C.3       1 M6S     -0.040179
     31 H14        14.8890  -11.9360   19.0490 H         1 M6S      0.122490
     32 H15        14.7070  -10.1770   18.8460 H         1 M6S      0.122490
     33 C17        13.9560  -10.9430   20.6920 C.ar      1 M6S      0.064569
     34 C18        13.4490   -9.7210   21.0990 C.ar      1 M6S     -0.117031
     35 H16        13.7670   -8.8130   20.6070 H         1 M6S      0.153752
     36 C19        12.5350   -9.6630   22.1360 C.ar      1 M6S     -0.120728
     37 H17        12.1010   -8.7160   22.4230 H         1 M6S      0.150397
     38 C20        12.1730  -10.8340   22.8130 C.ar      1 M6S     -0.125486
     39 C21        12.7020  -12.0710   22.3980 C.ar      1 M6S     -0.120728
     40 H18        12.4120  -12.9810   22.9020 H         1 M6S      0.150397
     41 C22        13.5990  -12.1160   21.3380 C.ar      1 M6S     -0.117031
     42 H19        14.0160  -13.0600   21.0190 H         1 M6S      0.153752
     43 C23        11.1560  -10.7780   23.9000 C.2       1 M6S      0.714310
     44 N24        10.4320  -11.8410   24.1870 N.3       1 M6S     -0.805768
     45 H20         9.6990  -11.7810   24.8790 H         1 M6S      0.438552
     46 H21        10.6100  -12.7160   23.7150 H         1 M6S      0.438552
     47 N25        10.8940   -9.5970   24.5570 N.3       1 M6S     -0.805768
     48 H22        11.4390   -8.7720   24.3500 H         1 M6S      0.438552
     49 H23        10.1570   -9.5550   25.2460 H         1 M6S      0.438552
     50 C26        19.7500  -11.9790   19.6520 C.3       1 M6S     -0.089925
     51 H24        20.5470  -11.2380   19.5970 H         1 M6S      0.093956
     52 H25        19.4830  -12.3010   18.6450 H         1 M6S      0.093956
     53 C27        19.9870  -13.1160   20.6570 C.3       1 M6S      0.034792
     54 H26        19.9970  -14.1080   20.2050 H         1 M6S      0.057465
     55 H27        20.8810  -12.9850   21.2660 H         1 M6S      0.057465
     56 C28        16.3280  -15.8450   21.5910 C.3       1 M6S     -0.016853
     57 H28        16.7380  -16.8030   21.2710 H         1 M6S      0.087515
     58 H29        16.5880  -15.0770   20.8620 H         1 M6S      0.087515
     59 C29        14.8150  -15.9560   21.6790 C.2       1 M6S      0.555323
     60 O30        14.2850  -16.3140   22.7220 O.2       1 M6S     -0.563580
     61 C10        12.5900  -15.6930   20.5780 C.3       1 M6S     -0.163621
     62 H30        12.2240  -15.3970   19.5950 H         1 M6S      0.125010
     63 H31        12.1960  -15.0120   21.3330 H         1 M6S      0.125010
     64 H32        12.2610  -16.7090   20.7980 H         1 M6S      0.125010
     65 N2         14.0640  -15.6410   20.5900 N.am      1 M6S     -0.472747
     66 H33        14.5400  -15.3570   19.7460 H         1 M6S      0.357218
     67 H34        18.9160  -15.2560   22.2830 H         1 M6S      0.184431
     68 H35        18.6860  -10.6580   21.0880 H         1 M6S      0.124464
@<TRIPOS>BOND
     1    1    2 1   
     2    1    3 1   
     3    1   15 1   
     4    1   21 1   
     5    3    4 1   
     6    3    5 1   
     7    3    6 1   
     8    6    7 1   
     9    6    8 1   
    10    6    9 1   
    11    9   10 1   
    12    9   11 1   
    13    9   12 1   
    14   12   13 1   
    15   12   14 1   
    16   12   15 1   
    17   15   16 1   
    18   15   17 1   
    19   18   19 1   
    20   18   20 1   
    21   18   21 1   
    22   18   56 1   
    23   21   22 1   
    24   21   67 1   
    25   22   23 2   
    26   22   24 am  
    27   24   25 1   
    28   24   53 1   
    29   25   26 1   
    30   25   50 1   
    31   25   68 1   
    32   26   27 2   
    33   26   28 am  
    34   28   29 1   
    35   28   30 1   
    36   30   31 1   
    37   30   32 1   
    38   30   33 1   
    39   33   34 ar  
    40   33   41 ar  
    41   34   35 1   
    42   34   36 ar  
    43   36   37 1   
    44   36   38 ar  
    45   38   39 ar  
    46   38   43 1   
    47   39   40 1   
    48   39   41 ar  
    49   41   42 1   
    50   43   44 2   
    51   43   47 1   
    52   44   45 1   
    53   44   46 1   
    54   47   48 1   
    55   47   49 1   
    56   50   51 1   
    57   50   52 1   
    58   50   53 1   
    59   53   54 1   
    60   53   55 1   
    61   56   57 1   
    62   56   58 1   
    63   56   59 1   
    64   59   60 2   
    65   59   65 am  
    66   61   62 1   
    67   61   63 1   
    68   61   64 1   
    69   61   65 1   
    70   65   66 1   
@<TRIPOS>SUBSTRUCTURE
     1 M6S         1 TEMP              0 ****  ****    0 ROOT
