@<TRIPOS>MOLECULE
4BAO.B
   65    67     1     0     0
SMALL
No Charge or Current Charge


@<TRIPOS>ATOM
      1 C1         18.8260  -14.4920   24.2160 C.3       1 MVF     -0.031368
      2 H1         18.1330  -13.8150   24.7160 H         1 MVF      0.077751
      3 C2         18.9260  -15.7910   25.0380 C.3       1 MVF     -0.063354
      4 H2         19.6050  -16.4860   24.5450 H         1 MVF      0.035754
      5 H3         17.9400  -16.2470   25.1250 H         1 MVF      0.035754
      6 C3         19.4630  -15.4470   26.4360 C.3       1 MVF     -0.025858
      7 H4         19.5300  -16.3590   27.0290 H         1 MVF      0.031506
      8 H5         18.7810  -14.7480   26.9200 H         1 MVF      0.031506
      9 C4         20.8600  -14.8050   26.3340 C.3       1 MVF     -0.011469
     10 H6         21.5360  -15.4960   25.8300 H         1 MVF      0.033592
     11 H7         21.2340  -14.5980   27.3370 H         1 MVF      0.033592
     12 C5         20.7940  -13.4950   25.5410 C.3       1 MVF     -0.025858
     13 H8         21.7970  -13.0800   25.4360 H         1 MVF      0.031506
     14 H9         20.1590  -12.7810   26.0660 H         1 MVF      0.031506
     15 C6         20.2040  -13.7840   24.1440 C.3       1 MVF     -0.063354
     16 H10        20.0840  -12.8400   23.6130 H         1 MVF      0.035754
     17 H11        20.8970  -14.4230   23.5970 H         1 MVF      0.035754
     18 N7         16.9740  -15.5260   22.8620 N.4       1 MVF     -0.013529
     19 H12        16.2980  -14.9390   23.3300 H         1 MVF      0.220622
     20 H13        17.1780  -16.3900   23.3440 H         1 MVF      0.220622
     21 C8         18.2640  -14.7820   22.8100 C.3       1 MVF      0.002218
     22 C9         17.9860  -13.4590   22.1550 C.2       1 MVF      0.265432
     23 O0         16.9690  -12.8750   22.4850 O.2       1 MVF     -0.479051
     24 N11        18.7990  -12.9000   21.2270 N.am      1 MVF     -0.039360
     25 C12        18.6330  -11.7020   20.3900 C.3       1 MVF     -0.125150
     26 C13        17.2430  -11.8200   19.8070 C.2       1 MVF      0.502329
     27 O14        16.9390  -12.8630   19.2540 O.2       1 MVF     -0.507702
     28 N15        16.3140  -10.8710   20.0530 N.am      1 MVF     -0.423669
     29 H14        16.5590  -10.0400   20.5730 H         1 MVF      0.309470
     30 C16        14.9510  -11.0570   19.5600 C.3       1 MVF      0.004246
     31 H15        14.8760  -12.0240   19.0620 H         1 MVF      0.112605
     32 H16        14.7120  -10.2640   18.8520 H         1 MVF      0.112605
     33 C17        13.9780  -11.0110   20.7090 C.ar      1 MVF      0.047463
     34 C22        13.6590  -12.1700   21.4040 C.ar      1 MVF     -0.115004
     35 H17        14.1250  -13.1070   21.1370 H         1 MVF      0.150411
     36 C21        12.7390  -12.1230   22.4440 C.ar      1 MVF     -0.119361
     37 H18        12.4720  -13.0250   22.9750 H         1 MVF      0.154609
     38 C20        12.1560  -10.8880   22.8020 C.ar      1 MVF     -0.137707
     39 C19        12.5010   -9.7210   22.0970 C.ar      1 MVF     -0.119361
     40 H19        12.0560   -8.7740   22.3640 H         1 MVF      0.154609
     41 C18        13.4130   -9.7910   21.0600 C.ar      1 MVF     -0.115004
     42 H20        13.6870   -8.8960   20.5220 H         1 MVF      0.150411
     43 C23        11.1650  -10.8050   23.9070 C.2       1 MVF      0.719277
     44 N25        10.4330  -11.9160   24.2990 N.3       1 MVF     -0.799765
     45 H21         9.7450  -11.8340   25.0340 H         1 MVF      0.437715
     46 H22        10.5880  -12.8070   23.8490 H         1 MVF      0.437715
     47 N24        10.9450   -9.6670   24.5050 N.3       1 MVF     -0.799765
     48 H23        11.4670   -8.8450   24.2350 H         1 MVF      0.437715
     49 H24        10.2530   -9.6070   25.2380 H         1 MVF      0.437715
     50 C26        19.7940  -12.1380   19.4720 C.3       1 MVF     -0.133007
     51 H25        20.6040  -11.4150   19.3780 H         1 MVF      0.107746
     52 H26        19.4950  -12.4800   18.4810 H         1 MVF      0.107746
     53 C27        20.0340  -13.2510   20.4970 C.3       1 MVF      0.011582
     54 H27        20.0210  -14.2530   20.0680 H         1 MVF      0.065842
     55 H28        20.9430  -13.1190   21.0840 H         1 MVF      0.065842
     56 C28        16.3960  -15.9280   21.5510 C.3       1 MVF     -0.018426
     57 H29        16.9920  -16.7410   21.1360 H         1 MVF      0.094106
     58 H30        16.4260  -15.0740   20.8750 H         1 MVF      0.094106
     59 C29        14.9570  -16.3940   21.6930 C.2       1 MVF      0.695222
     60 O30        14.3610  -16.3550   22.7550 O.2       1 MVF     -0.570355
     61 N30        14.3000  -16.8850   20.6250 N.am      1 MVF     -0.958270
     62 H31        14.7600  -16.9340   19.7270 H         1 MVF      0.454096
     63 H32        13.3470  -17.2050   20.7220 H         1 MVF      0.454096
     64 H33        18.9930  -15.3600   22.2400 H         1 MVF      0.118763
     65 H34        18.7870  -10.7610   20.9130 H         1 MVF      0.134840
@<TRIPOS>BOND
     1    1    2 1   
     2    1    3 1   
     3    1   15 1   
     4    1   21 1   
     5    3    4 1   
     6    3    5 1   
     7    3    6 1   
     8    6    7 1   
     9    6    8 1   
    10    6    9 1   
    11    9   10 1   
    12    9   11 1   
    13    9   12 1   
    14   12   13 1   
    15   12   14 1   
    16   12   15 1   
    17   15   16 1   
    18   15   17 1   
    19   18   19 1   
    20   18   20 1   
    21   18   21 1   
    22   18   56 1   
    23   21   22 1   
    24   21   64 1   
    25   22   23 2   
    26   22   24 am  
    27   24   25 1   
    28   24   53 1   
    29   25   26 1   
    30   25   50 1   
    31   25   65 1   
    32   26   27 2   
    33   26   28 am  
    34   28   29 1   
    35   28   30 1   
    36   30   31 1   
    37   30   32 1   
    38   30   33 1   
    39   33   34 ar  
    40   33   41 ar  
    41   34   35 1   
    42   34   36 ar  
    43   36   37 1   
    44   36   38 ar  
    45   38   39 ar  
    46   38   43 1   
    47   39   40 1   
    48   39   41 ar  
    49   41   42 1   
    50   43   44 2   
    51   43   47 1   
    52   44   45 1   
    53   44   46 1   
    54   47   48 1   
    55   47   49 1   
    56   50   51 1   
    57   50   52 1   
    58   50   53 1   
    59   53   54 1   
    60   53   55 1   
    61   56   57 1   
    62   56   58 1   
    63   56   59 1   
    64   59   60 2   
    65   59   61 am  
    66   61   62 1   
    67   61   63 1   
@<TRIPOS>SUBSTRUCTURE
     1 MVF         1 TEMP              0 ****  ****    0 ROOT
