@<TRIPOS>MOLECULE
4BAQ.B
   71    73     1     0     0
SMALL
No Charge or Current Charge


@<TRIPOS>ATOM
      1 C1         18.7700  -14.5310   24.2010 C.3       1 M4Z     -0.049055
      2 H1         18.0390  -13.9050   24.7130 H         1 M4Z      0.095622
      3 C2         18.8900  -15.8540   24.9790 C.3       1 M4Z     -0.006671
      4 H2         19.5760  -16.5220   24.4580 H         1 M4Z      0.018957
      5 H3         17.9090  -16.3240   25.0500 H         1 M4Z      0.018957
      6 C3         19.4250  -15.5690   26.3880 C.3       1 M4Z     -0.012706
      7 H4         19.4840  -16.5020   26.9490 H         1 M4Z      0.029236
      8 H5         18.7520  -14.8800   26.8990 H         1 M4Z      0.029236
      9 C4         20.8250  -14.9400   26.2940 C.3       1 M4Z     -0.037650
     10 H6         21.4810  -15.5960   25.7210 H         1 M4Z      0.033689
     11 H7         21.2310  -14.8050   27.2960 H         1 M4Z      0.033689
     12 C5         20.7250  -13.5770   25.5940 C.3       1 M4Z     -0.012706
     13 H8         21.7210  -13.1430   25.5020 H         1 M4Z      0.029236
     14 H9         20.0920  -12.9130   26.1830 H         1 M4Z      0.029236
     15 C6         20.1110  -13.7580   24.1860 C.3       1 M4Z     -0.006671
     16 H10        19.9380  -12.7720   23.7540 H         1 M4Z      0.018957
     17 H11        20.8200  -14.3070   23.5670 H         1 M4Z      0.018957
     18 N7         17.0040  -15.5640   22.7950 N.4       1 M4Z     -0.001945
     19 H12        16.3370  -15.0280   23.3320 H         1 M4Z      0.242779
     20 H13        17.1920  -16.4370   23.2660 H         1 M4Z      0.242779
     21 C8         18.2700  -14.7950   22.7660 C.3       1 M4Z     -0.108901
     22 C9         17.9940  -13.4660   22.1110 C.2       1 M4Z      0.248823
     23 O0         16.9890  -12.8630   22.4510 O.2       1 M4Z     -0.474502
     24 N11        18.8060  -12.9080   21.1800 N.am      1 M4Z     -0.050177
     25 C12        18.6340  -11.7030   20.3590 C.3       1 M4Z     -0.087990
     26 C13        17.2390  -11.8210   19.7690 C.2       1 M4Z      0.517959
     27 O14        16.8970  -12.8940   19.2870 O.2       1 M4Z     -0.517292
     28 N15        16.3370  -10.8280   19.9420 N.am      1 M4Z     -0.423687
     29 H14        16.6030   -9.9700   20.4040 H         1 M4Z      0.306674
     30 C16        14.9700  -11.0130   19.4510 C.3       1 M4Z     -0.018867
     31 H15        14.9020  -11.9590   18.9130 H         1 M4Z      0.114044
     32 H16        14.7120  -10.1940   18.7800 H         1 M4Z      0.114044
     33 C17        14.0140  -11.0280   20.6150 C.ar      1 M4Z      0.067252
     34 C22        13.4600   -9.8210   21.0260 C.ar      1 M4Z     -0.123286
     35 H17        13.7160   -8.9080   20.5090 H         1 M4Z      0.157667
     36 C21        12.5830   -9.7860   22.0930 C.ar      1 M4Z     -0.120761
     37 H18        12.1430   -8.8510   22.4070 H         1 M4Z      0.155424
     38 C20        12.2690  -10.9790   22.7660 C.ar      1 M4Z     -0.128771
     39 C19        12.8180  -12.2040   22.3360 C.ar      1 M4Z     -0.120761
     40 H19        12.5540  -13.1250   22.8350 H         1 M4Z      0.155424
     41 C18        13.7050  -12.2160   21.2610 C.ar      1 M4Z     -0.123286
     42 H20        14.1490  -13.1440   20.9330 H         1 M4Z      0.157667
     43 C23        11.2680  -10.9270   23.8550 C.2       1 M4Z      0.708483
     44 N24        10.5420  -11.9780   24.1770 N.3       1 M4Z     -0.794230
     45 H21         9.8190  -11.8970   24.8780 H         1 M4Z      0.434776
     46 H22        10.7080  -12.8650   23.7230 H         1 M4Z      0.434776
     47 N25        11.0360   -9.7280   24.4760 N.3       1 M4Z     -0.794230
     48 H24        11.5890   -8.9180   24.2340 H         1 M4Z      0.434776
     49 H23        10.3120   -9.6540   25.1760 H         1 M4Z      0.434776
     50 C26        19.7960  -12.1120   19.4430 C.3       1 M4Z     -0.094465
     51 H25        20.6060  -11.3860   19.3750 H         1 M4Z      0.092798
     52 H26        19.5040  -12.4250   18.4410 H         1 M4Z      0.092798
     53 C27        20.0340  -13.2570   20.4360 C.3       1 M4Z      0.047700
     54 H27        20.0070  -14.2470   19.9810 H         1 M4Z      0.044594
     55 H28        20.9480  -13.1500   21.0200 H         1 M4Z      0.044594
     56 C28        16.3660  -15.8900   21.4900 C.3       1 M4Z      0.032976
     57 H29        16.8690  -16.7520   21.0530 H         1 M4Z      0.073256
     58 H30        16.4640  -15.0340   20.8220 H         1 M4Z      0.073256
     59 C10        12.0350  -15.5660   19.4200 C.3       1 M4Z     -0.088014
     60 H31        10.9560  -15.7150   19.3860 H         1 M4Z      0.052287
     61 H32        12.4810  -15.9260   18.4930 H         1 M4Z      0.052287
     62 H33        12.2520  -14.5040   19.5390 H         1 M4Z      0.052287
     63 C29        14.8900  -16.2140   21.6700 C.2       1 M4Z      0.517083
     64 O30        14.4460  -16.5720   22.7540 O.2       1 M4Z     -0.582924
     65 C24        12.6200  -16.3420   20.6020 C.3       1 M4Z     -0.014831
     66 H34        12.4160  -17.4070   20.4900 H         1 M4Z      0.107407
     67 H35        12.1860  -15.9860   21.5360 H         1 M4Z      0.107407
     68 N3         14.0720  -16.1010   20.5930 N.am      1 M4Z     -0.502733
     69 H36        14.4930  -15.8300   19.7160 H         1 M4Z      0.350806
     70 H37        19.0210  -15.3580   22.2110 H         1 M4Z      0.153317
     71 H38        18.7880  -10.7750   20.9050 H         1 M4Z      0.118363
@<TRIPOS>BOND
     1    1    2 1   
     2    1    3 1   
     3    1   15 1   
     4    1   21 1   
     5    3    4 1   
     6    3    5 1   
     7    3    6 1   
     8    6    7 1   
     9    6    8 1   
    10    6    9 1   
    11    9   10 1   
    12    9   11 1   
    13    9   12 1   
    14   12   13 1   
    15   12   14 1   
    16   12   15 1   
    17   15   16 1   
    18   15   17 1   
    19   18   19 1   
    20   18   20 1   
    21   18   21 1   
    22   18   56 1   
    23   21   22 1   
    24   21   70 1   
    25   22   23 2   
    26   22   24 am  
    27   24   25 1   
    28   24   53 1   
    29   25   26 1   
    30   25   50 1   
    31   25   71 1   
    32   26   27 2   
    33   26   28 am  
    34   28   29 1   
    35   28   30 1   
    36   30   31 1   
    37   30   32 1   
    38   30   33 1   
    39   33   34 ar  
    40   33   41 ar  
    41   34   35 1   
    42   34   36 ar  
    43   36   37 1   
    44   36   38 ar  
    45   38   39 ar  
    46   38   43 1   
    47   39   40 1   
    48   39   41 ar  
    49   41   42 1   
    50   43   44 2   
    51   43   47 1   
    52   44   45 1   
    53   44   46 1   
    54   47   48 1   
    55   47   49 1   
    56   50   51 1   
    57   50   52 1   
    58   50   53 1   
    59   53   54 1   
    60   53   55 1   
    61   56   57 1   
    62   56   58 1   
    63   56   63 1   
    64   59   60 1   
    65   59   61 1   
    66   59   62 1   
    67   59   65 1   
    68   63   64 2   
    69   63   68 am  
    70   65   66 1   
    71   65   67 1   
    72   65   68 1   
    73   68   69 1   
@<TRIPOS>SUBSTRUCTURE
     1 M4Z         1 TEMP              0 ****  ****    0 ROOT
