@<TRIPOS>MOLECULE
FQI
   13    13     1     0     0
SMALL
No Charge or Current Charge


@<TRIPOS>ATOM
      1 Cl        126.3490  -10.3320  166.4450 Cl        1 FQI     -0.029600
      2 C4        125.9800  -11.7850  165.6260 C.2       1 FQI     -0.068500
      3 C2        125.0300  -13.7830  165.0770 C.2       1 FQI     -0.116200
      4 H1        124.3640  -14.6260  165.1820 H         1 FQI      0.150500
      5 C         126.1890  -14.5720  162.9690 C.2       1 FQI      0.777100
      6 O         126.8340  -14.1650  161.9930 O.2       1 FQI     -0.545500
      7 N         125.7080  -15.8060  163.0780 N.am      1 FQI     -0.918200
      8 H2        125.8610  -16.4750  162.3370 H         1 FQI      0.391900
      9 H3        125.1890  -16.0750  163.9020 H         1 FQI      0.391900
     10 C1        125.9290  -13.6620  164.0480 C.2       1 FQI     -0.176600
     11 C3        125.0570  -12.7080  165.9810 C.2       1 FQI     -0.058800
     12 H4        124.4210  -12.6290  166.8500 H         1 FQI      0.142300
     13 S         126.8220  -12.1810  164.1850 S.3       1 FQI      0.059700
@<TRIPOS>BOND
     1    1    2 1   
     2    2   11 2   
     3    2   13 1   
     4    3    4 1   
     5    3   10 2   
     6    3   11 1   
     7    5    6 2   
     8    5    7 am  
     9    5   10 1   
    10    7    8 1   
    11    7    9 1   
    12   10   13 1   
    13   11   12 1   
@<TRIPOS>SUBSTRUCTURE
     1 FQI         1 TEMP              0 ****  ****    0 ROOT
