@<TRIPOS>MOLECULE
N6L
   52    54     1     0     0
SMALL
No Charge or Current Charge


@<TRIPOS>ATOM
      1 C         125.4440  -14.0490  163.9950 C.ar      1 N6L     -0.079900
      2 N         131.0460  -15.8180  163.9040 N.am      1 N6L     -0.106400
      3 O         128.8740  -15.3430  162.1720 O.2       1 N6L     -0.463900
      4 Cl        125.4320  -15.4460  162.9250 Cl        1 N6L     -0.054800
      5 C1        126.3400  -13.0390  163.7840 C.ar      1 N6L      0.109300
      6 O1        129.3390  -15.5610  165.3200 O.2       1 N6L     -0.470500
      7 Cl1       125.2880  -10.5270  166.7070 Cl        1 N6L     -0.073600
      8 C2        127.3250  -13.0050  162.6550 C.3       1 N6L     -0.045500
      9 H21       127.2890  -12.0160  162.1990 H         1 N6L      0.105100
     10 H22       127.0300  -13.7540  161.9210 H         1 N6L      0.105100
     11 N2        128.6980  -13.2740  163.0550 N.am      1 N6L     -0.437100
     12 H2        129.1800  -12.5500  163.5680 H         1 N6L      0.293400
     13 C3        126.2650  -11.9620  164.6410 C.ar      1 N6L     -0.053900
     14 H3        126.9460  -11.1330  164.5170 H         1 N6L      0.117000
     15 N3        129.1590  -18.2780  165.4930 N.4       1 N6L     -0.127500
     16 H31       128.7930  -18.3300  164.5530 H         1 N6L      0.217000
     17 H32       128.5400  -17.7220  166.0650 H         1 N6L      0.217000
     18 H33       129.2280  -19.2090  165.8790 H         1 N6L      0.217000
     19 C4        125.3340  -11.9310  165.6510 C.ar      1 N6L     -0.046600
     20 C5        124.4390  -12.9560  165.8800 C.ar      1 N6L     -0.055800
     21 H5        123.7340  -12.9260  166.6970 H         1 N6L      0.146600
     22 C6        124.4960  -14.0180  165.0080 C.ar      1 N6L     -0.095600
     23 H6        123.7970  -14.8350  165.1120 H         1 N6L      0.143500
     24 C7        129.3780  -14.4040  162.8000 C.2       1 N6L      0.467500
     25 C8        132.1540  -16.5050  163.2300 C.3       1 N6L     -0.014000
     26 H81       131.7780  -17.2410  162.5190 H         1 N6L      0.060200
     27 H82       132.8020  -16.9980  163.9550 H         1 N6L      0.060200
     28 C9        130.7900  -14.4770  163.3120 C.3       1 N6L      0.021300
     29 H9        130.8850  -13.6590  164.0260 H         1 N6L      0.097100
     30 C10       131.8250  -14.3550  162.1940 C.3       1 N6L     -0.064200
     31 H101      132.2550  -13.3530  162.1820 H         1 N6L      0.061200
     32 H102      131.3670  -14.5650  161.2280 H         1 N6L      0.061200
     33 C11       132.8980  -15.3900  162.5100 C.3       1 N6L     -0.057100
     34 H111      133.3560  -15.7620  161.5930 H         1 N6L      0.060600
     35 H112      133.6670  -14.9630  163.1530 H         1 N6L      0.060600
     36 C12       130.2550  -16.2750  164.8850 C.2       1 N6L      0.214100
     37 C13       130.4800  -17.6630  165.4670 C.3       1 N6L      0.260100
     38 H13       131.1930  -18.2400  164.8780 H         1 N6L      0.004200
     39 C14       131.0560  -17.5730  166.8830 C.3       1 N6L     -0.020900
     40 H141      131.0720  -18.5760  167.3100 H         1 N6L      0.071700
     41 H142      130.4030  -16.9350  167.4780 H         1 N6L      0.071700
     42 C15       135.0390  -15.9950  167.0680 C.ar      1 N6L     -0.104900
     43 H15       136.0450  -15.6040  167.1030 H         1 N6L      0.152900
     44 C16       134.0000  -15.3280  167.7200 C.ar      1 N6L     -0.143200
     45 H16       134.2000  -14.4190  168.2680 H         1 N6L      0.157000
     46 C17       132.7070  -15.8370  167.6620 C.ar      1 N6L     -0.121800
     47 H17       131.9020  -15.3260  168.1700 H         1 N6L      0.127400
     48 C18       132.4480  -17.0120  166.9450 C.ar      1 N6L     -0.062200
     49 C19       133.4840  -17.6820  166.3030 C.ar      1 N6L     -0.121800
     50 H19       133.2900  -18.5930  165.7560 H         1 N6L      0.127400
     51 C20       134.7660  -17.1660  166.3740 C.ar      1 N6L     -0.143200
     52 H20       135.5720  -17.6860  165.8780 H         1 N6L      0.157000
@<TRIPOS>BOND
     1    1    4 1   
     2    1    5 ar  
     3    1   22 ar  
     4    2   25 1   
     5    2   28 1   
     6    2   36 am  
     7    3   24 2   
     8    5    8 1   
     9    5   13 ar  
    10    6   36 2   
    11    7   19 1   
    12    8    9 1   
    13    8   10 1   
    14    8   11 1   
    15   11   12 1   
    16   11   24 am  
    17   13   14 1   
    18   13   19 ar  
    19   15   16 1   
    20   15   17 1   
    21   15   18 1   
    22   15   37 1   
    23   19   20 ar  
    24   20   21 1   
    25   20   22 ar  
    26   22   23 1   
    27   24   28 1   
    28   25   26 1   
    29   25   27 1   
    30   25   33 1   
    31   28   29 1   
    32   28   30 1   
    33   30   31 1   
    34   30   32 1   
    35   30   33 1   
    36   33   34 1   
    37   33   35 1   
    38   36   37 1   
    39   37   38 1   
    40   37   39 1   
    41   39   40 1   
    42   39   41 1   
    43   39   48 1   
    44   42   43 1   
    45   42   44 ar  
    46   42   51 ar  
    47   44   45 1   
    48   44   46 ar  
    49   46   47 1   
    50   46   48 ar  
    51   48   49 ar  
    52   49   50 1   
    53   49   51 ar  
    54   51   52 1   
@<TRIPOS>SUBSTRUCTURE
     1 N6L         1 TEMP              0 ****  ****    0 ROOT
