@<TRIPOS>MOLECULE
MRZ
   23    23     1     0     0
SMALL
No Charge or Current Charge


@<TRIPOS>ATOM
      1 C1         70.3680  -11.3700   91.5110 C.3       1 MRZ      0.002600
      2 H11        70.0180  -11.3540   90.4790 H         1 MRZ      0.034600
      3 H12        71.4550  -11.4490   91.5250 H         1 MRZ      0.034600
      4 C6         69.7720  -12.5790   92.2210 C.3       1 MRZ      0.006100
      5 H61        70.1680  -13.4900   91.7720 H         1 MRZ      0.029700
      6 H62        68.6880  -12.5610   92.1110 H         1 MRZ      0.029700
      7 C5         70.1240  -12.5570   93.6980 C.3       1 MRZ     -0.028500
      8 H51        71.2030  -12.6510   93.8220 H         1 MRZ      0.080200
      9 H52        69.6270  -13.3820   94.2080 H         1 MRZ      0.080200
     10 N4         69.6670  -11.2740   94.2610 N.3       1 MRZ     -0.200700
     11 C3         70.3570  -10.1120   93.6930 C.3       1 MRZ     -0.028500
     12 H31        71.4370  -10.2270   93.7890 H         1 MRZ      0.080200
     13 H32        70.0430   -9.1990   94.1990 H         1 MRZ      0.080200
     14 C2         69.9510  -10.0680   92.2020 C.3       1 MRZ      0.006100
     15 H21        68.8700   -9.9480   92.1250 H         1 MRZ      0.029700
     16 H22        70.4460   -9.2270   91.7170 H         1 MRZ      0.029700
     17 C7         68.6280  -11.1850   95.1060 C.cat     1 MRZ      0.667300
     18 N8         67.9420  -12.2880   95.4490 N.3       1 MRZ     -0.835400
     19 H81        67.1580  -12.2190   96.0820 H         1 MRZ      0.434400
     20 H82        68.2100  -13.1870   95.0740 H         1 MRZ      0.434400
     21 N9         68.2270  -10.0260   95.6330 N.3       1 MRZ     -0.835400
     22 H91        67.4370  -10.0040   96.2620 H         1 MRZ      0.434400
     23 H92        68.7140   -9.1710   95.4030 H         1 MRZ      0.434400
@<TRIPOS>BOND
     1    1    2 1   
     2    1    3 1   
     3    1    4 1   
     4    1   14 1   
     5    4    5 1   
     6    4    6 1   
     7    4    7 1   
     8    7    8 1   
     9    7    9 1   
    10    7   10 1   
    11   10   11 1   
    12   10   17 2   
    13   11   12 1   
    14   11   13 1   
    15   11   14 1   
    16   14   15 1   
    17   14   16 1   
    18   17   18 1   
    19   17   21 1   
    20   18   19 1   
    21   18   20 1   
    22   21   22 1   
    23   21   23 1   
@<TRIPOS>SUBSTRUCTURE
     1 MRZ         1 TEMP              0 ****  ****    0 ROOT
