@<TRIPOS>MOLECULE
BEN
   18    18     1     0     0
SMALL
No Charge or Current Charge


@<TRIPOS>ATOM
      1 C1        139.7230   -9.9380   93.8440 C.ar      1 BEN     -0.121700
      2 C2        139.8490  -11.0440   93.0050 C.ar      1 BEN     -0.099000
      3 H2        139.2310  -11.9140   93.1700 H         1 BEN      0.142000
      4 C3        140.7600  -11.0380   91.9610 C.ar      1 BEN     -0.121400
      5 H3        140.8350  -11.9060   91.3230 H         1 BEN      0.167400
      6 C4        141.5770   -9.9480   91.7140 C.ar      1 BEN     -0.061400
      7 H4        142.2890   -9.9620   90.9020 H         1 BEN      0.164900
      8 C5        141.4560   -8.8230   92.5480 C.ar      1 BEN     -0.121400
      9 H5        142.0690   -7.9520   92.3730 H         1 BEN      0.167400
     10 C6        140.5440   -8.8340   93.6000 C.ar      1 BEN     -0.099000
     11 H6        140.4690   -7.9690   94.2420 H         1 BEN      0.142000
     12 C         138.7730   -9.9180   94.9050 C.2       1 BEN      0.657200
     13 N1        138.5060   -8.8380   95.6490 N.3       1 BEN     -0.759900
     14 HN12      137.7960   -8.8820   96.3660 H         1 BEN      0.425700
     15 HN11      139.0150   -7.9790   95.4940 H         1 BEN      0.425700
     16 N2        138.0410  -11.0140   95.1890 N.3       1 BEN     -0.759900
     17 HN22      137.3470  -10.9820   95.9220 H         1 BEN      0.425700
     18 HN21      138.1870  -11.8670   94.6690 H         1 BEN      0.425700
@<TRIPOS>BOND
     1    1    2 ar  
     2    1   10 ar  
     3    1   12 1   
     4    2    3 1   
     5    2    4 ar  
     6    4    5 1   
     7    4    6 ar  
     8    6    7 1   
     9    6    8 ar  
    10    8    9 1   
    11    8   10 ar  
    12   10   11 1   
    13   12   13 2   
    14   12   16 1   
    15   13   14 1   
    16   13   15 1   
    17   16   17 1   
    18   16   18 1   
@<TRIPOS>SUBSTRUCTURE
     1 BEN         1 TEMP              0 ****  ****    0 ROOT
