@<TRIPOS>MOLECULE
SJR
   29    30     1     0     0
SMALL
No Charge or Current Charge


@<TRIPOS>ATOM
      1 C__       138.7890  -14.3420   95.6610 C.3       1 SJR     -0.019600
      2 H1_       139.0540  -13.3570   96.0440 H         1 SJR      0.075300
      3 H2_       139.0080  -15.0960   96.4170 H         1 SJR      0.075300
      4 H3_       137.7260  -14.3650   95.4220 H         1 SJR      0.075300
      5 N__       139.0770  -20.6200   92.4240 N.am      1 SJR     -0.584900
      6 H4_       139.0380  -20.5020   93.4260 H         1 SJR      0.268500
      7 O__       139.5410  -14.6120   94.4930 O.3       1 SJR     -0.319100
      8 C1_       139.3510  -15.8130   93.8550 C.ar      1 SJR      0.304700
      9 N1_       139.3920  -22.8750   92.8090 N.ar      1 SJR     -0.569400
     10 O1_       139.3190  -19.4830   90.4640 O.2       1 SJR     -0.553500
     11 C2_       140.1550  -16.0050   92.7460 C.ar      1 SJR     -0.203000
     12 H5_       140.8100  -15.2160   92.4070 H         1 SJR      0.139400
     13 C3_       140.1160  -17.2150   92.0730 C.ar      1 SJR     -0.140700
     14 H6_       140.7720  -17.3810   91.2310 H         1 SJR      0.161800
     15 C4_       139.2380  -18.2210   92.4730 C.ar      1 SJR     -0.103500
     16 C5_       139.2140  -19.4920   91.6920 C.2       1 SJR      0.668400
     17 C6_       138.9830  -21.9380   91.9470 C.ar      1 SJR      0.657100
     18 C7_       138.5130  -22.2390   90.6620 C.ar      1 SJR     -0.339200
     19 H7_       138.1850  -21.4590   89.9910 H         1 SJR      0.179300
     20 C8_       138.4830  -23.5710   90.2800 C.ar      1 SJR     -0.041400
     21 H8_       138.1290  -23.8440   89.2970 H         1 SJR      0.155800
     22 C9_       138.9040  -24.5440   91.1540 C.ar      1 SJR     -0.283300
     23 H9_       138.8870  -25.5870   90.8730 H         1 SJR      0.143500
     24 C10       139.3480  -24.1530   92.3990 C.ar      1 SJR      0.202400
     25 H10       139.6800  -24.9190   93.0840 H         1 SJR      0.093300
     26 C11       138.4080  -18.0020   93.5690 C.ar      1 SJR     -0.140700
     27 H11       137.7150  -18.7700   93.8800 H         1 SJR      0.161800
     28 C12       138.4670  -16.8050   94.2630 C.ar      1 SJR     -0.203000
     29 H12       137.8280  -16.6430   95.1180 H         1 SJR      0.139400
@<TRIPOS>BOND
     1    1    2 1   
     2    1    3 1   
     3    1    4 1   
     4    1    7 1   
     5    5    6 1   
     6    5   16 am  
     7    5   17 1   
     8    7    8 1   
     9    8   11 ar  
    10    8   28 ar  
    11    9   17 ar  
    12    9   24 ar  
    13   10   16 2   
    14   11   12 1   
    15   11   13 ar  
    16   13   14 1   
    17   13   15 ar  
    18   15   16 1   
    19   15   26 ar  
    20   17   18 ar  
    21   18   19 1   
    22   18   20 ar  
    23   20   21 1   
    24   20   22 ar  
    25   22   23 1   
    26   22   24 ar  
    27   24   25 1   
    28   26   27 1   
    29   26   28 ar  
    30   28   29 1   
@<TRIPOS>SUBSTRUCTURE
     1 SJR         1 TEMP              0 ****  ****    0 ROOT
