@<TRIPOS>MOLECULE
WCE
   16    16     1     0     0
SMALL
No Charge or Current Charge


@<TRIPOS>ATOM
      1 C1         82.3160  -10.2330   23.8190 C.ar      1 WCE      0.005500
      2 Cl         82.6430   -8.7770   24.6700 Cl        1 WCE     -0.113300
      3 C2         83.0270  -10.5170   22.6460 C.ar      1 WCE     -0.055100
      4 H1         83.7760   -9.8320   22.2770 H         1 WCE      0.131900
      5 C3         82.7520  -11.6930   21.9680 C.ar      1 WCE     -0.159300
      6 C4         81.7600  -12.5380   22.4560 C.ar      1 WCE     -0.055100
      7 H2         81.5470  -13.4590   21.9330 H         1 WCE      0.131900
      8 C5         81.0390  -12.2260   23.5970 C.ar      1 WCE     -0.240200
      9 H3         80.2510  -12.8880   23.9230 H         1 WCE      0.177700
     10 C6         81.3140  -11.0660   24.3370 C.ar      1 WCE     -0.038700
     11 H4         80.7870  -10.8290   25.2490 H         1 WCE      0.138200
     12 C7         83.5090  -12.0150   20.7030 C.2       1 WCE      0.808900
     13 N          83.5660  -13.3390   20.2330 N.am      1 WCE     -0.959500
     14 H5         84.0540  -13.5490   19.3740 H         1 WCE      0.398600
     15 H6         83.1190  -14.0800   20.7540 H         1 WCE      0.398600
     16 O          84.0460  -11.1250   20.0770 O.2       1 WCE     -0.570100
@<TRIPOS>BOND
     1    1    2 1   
     2    1    3 ar  
     3    1   10 ar  
     4    3    4 1   
     5    3    5 ar  
     6    5    6 ar  
     7    5   12 1   
     8    6    7 1   
     9    6    8 ar  
    10    8    9 1   
    11    8   10 ar  
    12   10   11 1   
    13   12   13 am  
    14   12   16 2   
    15   13   14 1   
    16   13   15 1   
@<TRIPOS>SUBSTRUCTURE
     1 WCE         1 TEMP              0 ****  ****    0 ROOT
