@<TRIPOS>MOLECULE
UET
   66    68     1     0     0
SMALL
No Charge or Current Charge


@<TRIPOS>ATOM
      1 O3        141.8260  -23.3780   94.5620 O.2       1 UET     -0.580900
      2 S         142.9850  -22.8000   93.9550 S.o2      1 UET      1.136500
      3 O2        143.9690  -23.6580   93.3670 O.2       1 UET     -0.580900
      4 C17       142.3840  -21.6360   92.7410 C.3       1 UET     -0.086700
      5 H1        143.1880  -21.4140   92.0390 H         1 UET      0.069900
      6 H2        142.0840  -20.7210   93.2510 H         1 UET      0.069900
      7 C18       141.2060  -22.1720   91.9740 C.ar      1 UET      0.059000
      8 C23       141.3860  -23.0910   90.9550 C.ar      1 UET     -0.122100
      9 H3        142.3810  -23.4330   90.7130 H         1 UET      0.136800
     10 C22       140.3020  -23.5770   90.2430 C.ar      1 UET     -0.182100
     11 H4        140.4560  -24.2930   89.4490 H         1 UET      0.154700
     12 C21       139.0270  -23.1490   90.5450 C.ar      1 UET     -0.095500
     13 H5        138.1820  -23.5270   89.9890 H         1 UET      0.140600
     14 C20       138.8370  -22.2380   91.5590 C.ar      1 UET     -0.182100
     15 H6        137.8390  -21.9020   91.8010 H         1 UET      0.154700
     16 C19       139.9210  -21.7500   92.2700 C.ar      1 UET     -0.122100
     17 H7        139.7620  -21.0340   93.0630 H         1 UET      0.136800
     18 N4        143.7340  -21.9420   95.1060 N.3       1 UET     -0.715100
     19 H8        143.7980  -22.5510   95.9100 H         1 UET      0.386700
     20 C9        145.0640  -21.3670   94.9310 C.3       1 UET      0.060000
     21 H9        145.6540  -22.0510   94.3220 H         1 UET      0.110900
     22 C10       145.7470  -21.1900   96.2970 C.3       1 UET     -0.110800
     23 H10       145.8620  -22.1720   96.7570 H         1 UET      0.092300
     24 H11       145.1100  -20.5670   96.9250 H         1 UET      0.092300
     25 C11       147.1060  -20.5430   96.2030 C.ar      1 UET      0.003700
     26 C16       147.3340  -19.2900   96.7490 C.ar      1 UET     -0.098200
     27 H12       146.5270  -18.7680   97.2420 H         1 UET      0.116900
     28 C15       148.5830  -18.6990   96.6700 C.ar      1 UET     -0.185100
     29 H13       148.7430  -17.7200   97.0980 H         1 UET      0.155000
     30 C14       149.6220  -19.3540   96.0480 C.ar      1 UET     -0.096300
     31 H14       150.5970  -18.8930   95.9890 H         1 UET      0.140900
     32 C13       149.4100  -20.6000   95.5020 C.ar      1 UET     -0.185100
     33 H15       150.2220  -21.1190   95.0150 H         1 UET      0.155000
     34 C12       148.1590  -21.1890   95.5760 C.ar      1 UET     -0.098200
     35 H16       148.0020  -22.1640   95.1390 H         1 UET      0.116900
     36 C8        144.9860  -20.0260   94.2090 C.2       1 UET      0.375400
     37 O1        144.1280  -19.2020   94.5200 O.2       1 UET     -0.443100
     38 N3        145.8860  -19.8140   93.2500 N.am      1 UET     -0.403400
     39 H17       146.5710  -20.5290   93.0480 H         1 UET      0.328600
     40 C7        145.9040  -18.5820   92.4910 C.3       1 UET     -0.114400
     41 H18       146.7240  -18.6250   91.7740 H         1 UET      0.120800
     42 H19       146.0640  -17.7500   93.1770 H         1 UET      0.120800
     43 C6        144.6090  -18.3480   91.7360 C.2       1 UET      0.595300
     44 O         144.0880  -19.2540   91.0920 O.2       1 UET     -0.526400
     45 N2        144.0830  -17.1290   91.8280 N.am      1 UET     -0.504300
     46 H20       144.5660  -16.4270   92.3700 H         1 UET      0.306900
     47 C5        142.8320  -16.7750   91.1710 C.3       1 UET     -0.019900
     48 H21       142.6270  -17.5130   90.3960 H         1 UET      0.108300
     49 H22       142.9470  -15.7920   90.7150 H         1 UET      0.108300
     50 C4        141.6540  -16.7310   92.1140 C.ar      1 UET      0.063800
     51 C3        141.1420  -17.8970   92.6590 C.ar      1 UET     -0.090800
     52 H23       141.5760  -18.8470   92.3850 H         1 UET      0.151000
     53 C2        140.0840  -17.8630   93.5490 C.ar      1 UET     -0.151500
     54 H24       139.7000  -18.7860   93.9580 H         1 UET      0.146700
     55 C24       141.0730  -15.5260   92.4760 C.ar      1 UET     -0.090800
     56 H25       141.4510  -14.6060   92.0550 H         1 UET      0.151000
     57 C25       140.0170  -15.4840   93.3680 C.ar      1 UET     -0.151500
     58 H26       139.5820  -14.5330   93.6360 H         1 UET      0.146700
     59 C1        139.5100  -16.6530   93.9230 C.ar      1 UET     -0.119100
     60 C         138.4070  -16.6380   94.9050 C.2       1 UET      0.741300
     61 N1        138.1070  -15.4750   95.4880 N.3       1 UET     -0.813800
     62 H27       137.3680  -15.4300   96.1750 H         1 UET      0.432400
     63 H28       138.6190  -14.6400   95.2420 H         1 UET      0.432400
     64 N         137.7420  -17.7020   95.2310 N.3       1 UET     -0.813800
     65 H29       137.0050  -17.6460   95.9200 H         1 UET      0.432400
     66 H30       137.9610  -18.5870   94.7960 H         1 UET      0.432400
@<TRIPOS>BOND
     1    1    2 2   
     2    2    3 2   
     3    2    4 1   
     4    2   18 1   
     5    4    5 1   
     6    4    6 1   
     7    4    7 1   
     8    7    8 ar  
     9    7   16 ar  
    10    8    9 1   
    11    8   10 ar  
    12   10   11 1   
    13   10   12 ar  
    14   12   13 1   
    15   12   14 ar  
    16   14   15 1   
    17   14   16 ar  
    18   16   17 1   
    19   18   19 1   
    20   18   20 1   
    21   20   21 1   
    22   20   22 1   
    23   20   36 1   
    24   22   23 1   
    25   22   24 1   
    26   22   25 1   
    27   25   26 ar  
    28   25   34 ar  
    29   26   27 1   
    30   26   28 ar  
    31   28   29 1   
    32   28   30 ar  
    33   30   31 1   
    34   30   32 ar  
    35   32   33 1   
    36   32   34 ar  
    37   34   35 1   
    38   36   37 2   
    39   36   38 am  
    40   38   39 1   
    41   38   40 1   
    42   40   41 1   
    43   40   42 1   
    44   40   43 1   
    45   43   44 2   
    46   43   45 am  
    47   45   46 1   
    48   45   47 1   
    49   47   48 1   
    50   47   49 1   
    51   47   50 1   
    52   50   51 ar  
    53   50   55 ar  
    54   51   52 1   
    55   51   53 ar  
    56   53   54 1   
    57   53   59 ar  
    58   55   56 1   
    59   55   57 ar  
    60   57   58 1   
    61   57   59 ar  
    62   59   60 1   
    63   60   61 2   
    64   60   64 1   
    65   61   62 1   
    66   61   63 1   
    67   64   65 1   
    68   64   66 1   
@<TRIPOS>SUBSTRUCTURE
     1 UET         1 TEMP              0 ****  ****    0 ROOT
