@<TRIPOS>MOLECULE
Y4L
   25    25     1     0     0
SMALL
No Charge or Current Charge


@<TRIPOS>ATOM
      1 Cl        139.5340   -1.0960   95.6360 Cl        1 Y4L     -0.113100
      2 C5        139.2670   -2.5930   94.8190 C.ar      1 Y4L      0.000800
      3 C4        138.2470   -3.4210   95.2430 C.ar      1 Y4L     -0.091100
      4 H1        137.6550   -3.1630   96.1090 H         1 Y4L      0.148500
      5 C3        137.9940   -4.5930   94.5370 C.ar      1 Y4L     -0.212900
      6 H2        137.1800   -5.2360   94.8380 H         1 Y4L      0.171200
      7 C6        140.0760   -2.9310   93.7490 C.ar      1 Y4L     -0.091100
      8 H3        140.8850   -2.2810   93.4490 H         1 Y4L      0.148500
      9 C7        139.8370   -4.1100   93.0680 C.ar      1 Y4L     -0.212900
     10 H4        140.4710   -4.3880   92.2390 H         1 Y4L      0.171200
     11 C2        138.7850   -4.9420   93.4430 C.ar      1 Y4L      0.321800
     12 N1        138.5310   -6.1370   92.6940 N.3       1 Y4L     -0.674800
     13 H5        137.8320   -6.7630   93.0680 H         1 Y4L      0.362600
     14 S         139.2540   -6.5980   91.2930 S.o2      1 Y4L      1.079900
     15 O         138.4700   -7.6430   90.7250 O.2       1 Y4L     -0.512700
     16 O1        139.5810   -5.4750   90.4790 O.2       1 Y4L     -0.512700
     17 N         140.6140   -7.2410   91.8190 N.3       1 Y4L     -0.276600
     18 C1        141.6220   -7.5470   90.7970 C.3       1 Y4L     -0.171000
     19 H6        141.6570   -6.7380   90.0680 H         1 Y4L      0.105900
     20 H7        141.3590   -8.4780   90.2950 H         1 Y4L      0.105900
     21 H8        142.5980   -7.6530   91.2700 H         1 Y4L      0.105900
     22 C         140.4840   -8.2700   92.8550 C.3       1 Y4L     -0.171000
     23 H9        139.7200   -7.9690   93.5720 H         1 Y4L      0.105900
     24 H10       141.4370   -8.3900   93.3690 H         1 Y4L      0.105900
     25 H11       140.1980   -9.2160   92.3940 H         1 Y4L      0.105900
@<TRIPOS>BOND
     1    1    2 1   
     2    2    3 ar  
     3    2    7 ar  
     4    3    4 1   
     5    3    5 ar  
     6    5    6 1   
     7    5   11 ar  
     8    7    8 1   
     9    7    9 ar  
    10    9   10 1   
    11    9   11 ar  
    12   11   12 1   
    13   12   13 1   
    14   12   14 1   
    15   14   15 2   
    16   14   16 2   
    17   14   17 1   
    18   17   18 1   
    19   17   22 1   
    20   18   19 1   
    21   18   20 1   
    22   18   21 1   
    23   22   23 1   
    24   22   24 1   
    25   22   25 1   
@<TRIPOS>SUBSTRUCTURE
     1 Y4L         1 TEMP              0 ****  ****    0 ROOT
