@<TRIPOS>MOLECULE
AS1_refine_95-renamed.F
   77    79     1     0     0
SMALL
No Charge or Current Charge


@<TRIPOS>ATOM
      1 O3         14.2730  -17.2380   22.3490 O.2       1 XXX     -0.486301
      2 S          15.6850  -17.1680   22.1540 S.o2      1 XXX      0.868118
      3 O          16.2030  -16.7540   20.8890 O.2       1 XXX     -0.486301
      4 C          16.3410  -18.7850   22.5220 C.3       1 XXX     -0.171538
      5 H1         17.4180  -18.7640   22.3510 H         1 XXX      0.146509
      6 H2         15.9450  -19.4920   21.7920 H         1 XXX      0.146509
      7 C1         16.0740  -19.3410   23.8990 C.ar      1 XXX      0.008744
      8 C6         14.7900  -19.6920   24.2810 C.ar      1 XXX     -0.086393
      9 H3         13.9660  -19.6040   23.5860 H         1 XXX      0.125338
     10 C5         14.5350  -20.1640   25.5620 C.ar      1 XXX     -0.191528
     11 H4         13.5260  -20.4200   25.8480 H         1 XXX      0.167067
     12 C4         15.5670  -20.3060   26.4700 C.ar      1 XXX     -0.091591
     13 H5         15.3680  -20.6740   27.4660 H         1 XXX      0.161470
     14 C3         16.8490  -19.9670   26.0970 C.ar      1 XXX     -0.191528
     15 H6         17.6600  -20.0740   26.8030 H         1 XXX      0.167067
     16 C2         17.1010  -19.4830   24.8190 C.ar      1 XXX     -0.086393
     17 H7         18.1110  -19.2160   24.5470 H         1 XXX      0.125338
     18 N          16.2930  -16.1630   23.2730 N.3       1 XXX     -0.710176
     19 H8         15.5600  -15.5800   23.6410 H         1 XXX      0.410873
     20 C7         17.5140  -15.3800   23.1110 C.3       1 XXX      0.121252
     21 H9         18.2240  -15.9760   22.5450 H         1 XXX      0.077602
     22 C8         18.1390  -15.0160   24.4600 C.3       1 XXX     -0.011899
     23 H10        17.4950  -14.3230   24.9970 H         1 XXX      0.036707
     24 H11        19.0930  -14.5090   24.3050 H         1 XXX      0.036707
     25 C9         18.3330  -16.2590   25.3510 C.3       1 XXX     -0.002075
     26 H12        18.8800  -17.0310   24.8120 H         1 XXX      0.058560
     27 H13        17.3570  -16.6770   25.6020 H         1 XXX      0.058560
     28 C10        19.0690  -15.8710   26.6440 C.3       1 XXX     -0.072830
     29 H14        18.6710  -14.9260   27.0100 H         1 XXX      0.081895
     30 H15        20.1300  -15.6740   26.4790 H         1 XXX      0.081895
     31 N1         18.8410  -16.8260   27.7300 N.3       1 XXX     -0.189836
     32 H16        18.1550  -16.6100   28.4820 H         1 XXX      0.152850
     33 C11        19.6070  -18.0020   27.7260 C.cat     1 XXX      0.645266
     34 N3         20.4950  -18.2170   26.7560 N.3       1 XXX     -0.827309
     35 H17        20.7210  -17.4790   26.1040 H         1 XXX      0.439298
     36 H18        21.1130  -19.0150   26.7700 H         1 XXX      0.439298
     37 N2         19.2990  -18.8520   28.7840 N.3       1 XXX     -0.827309
     38 H19        19.7580  -19.7350   28.9470 H         1 XXX      0.439298
     39 H20        18.6230  -18.5290   29.4750 H         1 XXX      0.439298
     40 C12        17.1250  -14.0890   22.3870 C.2       1 XXX      0.402252
     41 O2         16.1250  -13.4780   22.7310 O.2       1 XXX     -0.500950
     42 N4         17.9460  -13.6300   21.4370 N.am      1 XXX     -0.147877
     43 C16        17.6450  -12.3840   20.7160 C.3       1 XXX     -0.010486
     44 H21        17.9730  -11.5420   21.3300 H         1 XXX      0.090388
     45 C15        18.5080  -12.4970   19.4510 C.3       1 XXX      0.001746
     46 H22        18.7870  -11.5340   19.0560 H         1 XXX      0.053942
     47 H23        17.9920  -13.0510   18.6670 H         1 XXX      0.053942
     48 C14        19.7340  -13.2920   19.9280 C.3       1 XXX     -0.132632
     49 H24        20.4420  -12.6160   20.4090 H         1 XXX      0.072818
     50 H25        20.2580  -13.7840   19.1080 H         1 XXX      0.072818
     51 C13        19.1800  -14.2800   20.9510 C.3       1 XXX      0.011901
     52 H26        18.9350  -15.2330   20.4840 H         1 XXX      0.080374
     53 H27        19.8980  -14.4610   21.7530 H         1 XXX      0.080374
     54 C17        16.1650  -12.2790   20.3660 C.2       1 XXX      0.459309
     55 O1         15.5590  -13.2330   19.8720 O.2       1 XXX     -0.570159
     56 N5         15.5990  -11.0980   20.6150 N.am      1 XXX     -0.331030
     57 H28        16.1600  -10.3640   21.0480 H         1 XXX      0.254256
     58 C18        14.1900  -10.8480   20.3260 C.3       1 XXX     -0.062397
     59 H29        13.8150  -11.4440   19.4950 H         1 XXX      0.110348
     60 H30        14.1340   -9.8320   19.9390 H         1 XXX      0.110348
     61 C19        13.3090  -10.8530   21.5590 C.ar      1 XXX      0.030793
     62 C24        12.4860  -11.9550   21.8700 C.ar      1 XXX     -0.005186
     63 C25        12.4670  -13.2620   21.0730 C.3       1 XXX     -0.043556
     64 H31        12.7460  -13.1400   20.0290 H         1 XXX      0.110693
     65 H32        11.4440  -13.6280   21.0520 H         1 XXX      0.110693
     66 N6         13.3160  -14.3440   21.6920 N.4       1 XXX     -0.128598
     67 H33        13.0380  -14.4990   22.6570 H         1 XXX      0.255366
     68 H34        14.2800  -14.0360   21.6540 H         1 XXX      0.255366
     69 H35        13.2140  -15.1920   21.1590 H         1 XXX      0.255366
     70 C23        11.6450  -11.8860   22.9760 C.ar      1 XXX     -0.206044
     71 H36        10.9870  -12.7060   23.2320 H         1 XXX      0.172066
     72 C22        11.5860  -10.7470   23.7650 C.ar      1 XXX     -0.040345
     73 H37        10.9030  -10.6980   24.6040 H         1 XXX      0.158351
     74 C21        12.4110   -9.6970   23.4630 C.ar      1 XXX     -0.037602
     75 Cl         12.4080   -8.2870   24.4770 Cl        1 XXX     -0.041166
     76 C20        13.2630   -9.7350   22.3840 C.ar      1 XXX     -0.099307
     77 H38        13.9020   -8.8900   22.1800 H         1 XXX      0.151314
@<TRIPOS>BOND
     1    1    2 2   
     2    2    3 2   
     3    2    4 1   
     4    2   18 1   
     5    4    5 1   
     6    4    6 1   
     7    4    7 1   
     8    7    8 ar  
     9    7   16 ar  
    10    8    9 1   
    11    8   10 ar  
    12   10   11 1   
    13   10   12 ar  
    14   12   13 1   
    15   12   14 ar  
    16   14   15 1   
    17   14   16 ar  
    18   16   17 1   
    19   18   19 1   
    20   18   20 1   
    21   20   21 1   
    22   20   22 1   
    23   20   40 1   
    24   22   23 1   
    25   22   24 1   
    26   22   25 1   
    27   25   26 1   
    28   25   27 1   
    29   25   28 1   
    30   28   29 1   
    31   28   30 1   
    32   28   31 1   
    33   31   32 1   
    34   31   33 2   
    35   33   34 1   
    36   33   37 1   
    37   34   35 1   
    38   34   36 1   
    39   37   38 1   
    40   37   39 1   
    41   40   41 2   
    42   40   42 am  
    43   42   43 1   
    44   42   51 1   
    45   43   44 1   
    46   43   45 1   
    47   43   54 1   
    48   45   46 1   
    49   45   47 1   
    50   45   48 1   
    51   48   49 1   
    52   48   50 1   
    53   48   51 1   
    54   51   52 1   
    55   51   53 1   
    56   54   55 2   
    57   54   56 am  
    58   56   57 1   
    59   56   58 1   
    60   58   59 1   
    61   58   60 1   
    62   58   61 1   
    63   61   62 ar  
    64   61   76 ar  
    65   62   63 1   
    66   62   70 ar  
    67   63   64 1   
    68   63   65 1   
    69   63   66 1   
    70   66   67 1   
    71   66   68 1   
    72   66   69 1   
    73   70   71 1   
    74   70   72 ar  
    75   72   73 1   
    76   72   74 ar  
    77   74   75 1   
    78   74   76 ar  
    79   76   77 1   
@<TRIPOS>SUBSTRUCTURE
     1 XXX         1 TEMP              0 ****  ****    0 ROOT
