@<TRIPOS>MOLECULE
XXX_1
   62    64     1     0     0
SMALL
No Charge or Current Charge


@<TRIPOS>ATOM
      1 O2_        16.2100  -12.6240   22.8670 O.2       1 XXX     -0.456121
      2 C8_        17.1260  -13.2830   22.4140 C.2       1 XXX      0.239714
      3 C__        17.4350  -14.6820   23.0190 C.3       1 XXX      0.061949
      4 C1_        17.9770  -14.5020   24.4360 C.3       1 XXX     -0.015834
      5 C2_        19.3470  -13.8310   24.5040 C.3       1 XXX      0.061771
      6 C7_        19.6870  -13.4000   25.9230 C.3       1 XXX     -0.070742
      7 C6_        21.0440  -12.7140   26.0010 C.3       1 XXX     -0.019393
      8 C5_        22.1390  -13.6180   25.4740 C.3       1 XXX      0.046719
      9 C4_        21.8300  -14.0740   24.0580 C.3       1 XXX     -0.019393
     10 C3_        20.4560  -14.7340   23.9730 C.3       1 XXX     -0.070742
     11 N__        16.1680  -15.4260   22.9860 N.4       1 XXX     -0.038740
     12 N1_        17.8760  -12.8330   21.3940 N.am      1 XXX     -0.205033
     13 C12        17.5890  -11.5250   20.7900 C.3       1 XXX      0.009532
     14 C11        18.5160  -11.4900   19.5680 C.3       1 XXX     -0.009953
     15 C10        19.6600  -12.4190   19.9380 C.3       1 XXX     -0.078626
     16 C9_        19.0060  -13.5170   20.7410 C.3       1 XXX      0.000380
     17 C13        16.1230  -11.4190   20.3770 C.2       1 XXX      0.522570
     18 O1_        15.5760  -12.3330   19.7620 O.2       1 XXX     -0.575994
     19 N2_        15.4890  -10.3030   20.7380 N.am      1 XXX     -0.439665
     20 C14        14.0890  -10.0720   20.4090 C.3       1 XXX     -0.200906
     21 C15        13.1840  -10.0750   21.6170 C.ar      1 XXX     -0.010547
     22 C20        12.4070  -11.2060   21.9180 C.ar      1 XXX      0.013297
     23 C21        12.4830  -12.4530   21.0700 C.3       1 XXX      0.136488
     24 O__        13.1390  -13.5110   21.7370 O.3       1 XXX     -0.676152
     25 C19        11.5570  -11.1700   23.0180 C.ar      1 XXX     -0.211088
     26 C18        11.4670  -10.0490   23.8200 C.ar      1 XXX     -0.046851
     27 C17        12.2440   -8.9580   23.5190 C.ar      1 XXX     -0.024830
     28 Cl__       12.1820   -7.5530   24.5430 Cl        1 XXX     -0.064446
     29 C16        13.0930   -8.9530   22.4370 C.ar      1 XXX     -0.086052
     30 H1_        18.1950  -15.2320   22.4640 H         1 XXX      0.069225
     31 H2_        18.0550  -15.4860   24.8990 H         1 XXX     -0.004388
     32 H3_        17.2700  -13.8910   24.9970 H         1 XXX     -0.004388
     33 H4_        19.2840  -12.9490   23.8670 H         1 XXX      0.042134
     34 H5_        19.7010  -14.2810   26.5650 H         1 XXX      0.037932
     35 H6_        18.9220  -12.7070   26.2730 H         1 XXX      0.037932
     36 H7_        21.2580  -12.4630   27.0400 H         1 XXX      0.007215
     37 H8_        21.0170  -11.8020   25.4050 H         1 XXX      0.007215
     38 H9_        22.2220  -14.4920   26.1200 H         1 XXX      0.012026
     39 H10        23.0830  -13.0730   25.4760 H         1 XXX      0.012026
     40 H11        22.5880  -14.7910   23.7430 H         1 XXX      0.007215
     41 H12        21.8500  -13.2090   23.3950 H         1 XXX      0.007215
     42 H13        20.2450  -14.9720   22.9300 H         1 XXX      0.037932
     43 H14        20.4710  -15.6530   24.5600 H         1 XXX      0.037932
     44 H17        15.8690  -15.5390   22.0280 H         1 XXX      0.240367
     45 H15        15.4650  -14.9160   23.5010 H         1 XXX      0.240367
     46 H16        16.3000  -16.3350   23.4070 H         1 XXX      0.240367
     47 H18        17.7560  -10.6930   21.4740 H         1 XXX      0.117662
     48 H19        18.8820  -10.4790   19.3900 H         1 XXX      0.036006
     49 H20        17.9980  -11.8510   18.6800 H         1 XXX      0.036006
     50 H21        20.4050  -11.8950   20.5370 H         1 XXX      0.061836
     51 H22        20.1330  -12.8240   19.0430 H         1 XXX      0.061836
     52 H23        18.6540  -14.3190   20.0920 H         1 XXX      0.081638
     53 H24        19.6960  -13.9240   21.4800 H         1 XXX      0.081638
     54 H25        15.9940   -9.5970   21.2550 H         1 XXX      0.343470
     55 H26        13.7600  -10.8570   19.7280 H         1 XXX      0.173563
     56 H27        14.0050   -9.1040   19.9160 H         1 XXX      0.173563
     57 H28        13.0290  -12.2230   20.1550 H         1 XXX      0.065758
     58 H29        11.4710  -12.7700   20.8200 H         1 XXX      0.065758
     59 H30        12.6380  -13.7080   22.5320 H         1 XXX      0.448952
     60 H31        10.9550  -12.0360   23.2500 H         1 XXX      0.173625
     61 H32        10.7980  -10.0310   24.6680 H         1 XXX      0.148135
     62 H33        13.6890   -8.0780   22.2230 H         1 XXX      0.130920
@<TRIPOS>BOND
     1    1    2 2   
     2    2    3 1   
     3    2   12 am  
     4    3    4 1   
     5    3   11 1   
     6    3   30 1   
     7    4    5 1   
     8    4   31 1   
     9    4   32 1   
    10    5    6 1   
    11    5   10 1   
    12    5   33 1   
    13    6    7 1   
    14    6   34 1   
    15    6   35 1   
    16    7    8 1   
    17    7   36 1   
    18    7   37 1   
    19    8    9 1   
    20    8   38 1   
    21    8   39 1   
    22    9   10 1   
    23    9   40 1   
    24    9   41 1   
    25   10   42 1   
    26   10   43 1   
    27   11   44 1   
    28   11   45 1   
    29   11   46 1   
    30   12   13 1   
    31   12   16 1   
    32   13   14 1   
    33   13   17 1   
    34   13   47 1   
    35   14   15 1   
    36   14   48 1   
    37   14   49 1   
    38   15   16 1   
    39   15   50 1   
    40   15   51 1   
    41   16   52 1   
    42   16   53 1   
    43   17   18 2   
    44   17   19 am  
    45   19   20 1   
    46   19   54 1   
    47   20   21 1   
    48   20   55 1   
    49   20   56 1   
    50   21   22 ar  
    51   21   29 ar  
    52   22   23 1   
    53   22   25 ar  
    54   23   24 1   
    55   23   57 1   
    56   23   58 1   
    57   24   59 1   
    58   25   26 ar  
    59   25   60 1   
    60   26   27 ar  
    61   26   61 1   
    62   27   28 1   
    63   27   29 ar  
    64   29   62 1   
@<TRIPOS>SUBSTRUCTURE
     1 XXX         1 TEMP              0 ****  ****    0 ROOT
