@<TRIPOS>MOLECULE
*****
   64    66     1     0     0
SMALL
No Charge or Current Charge


@<TRIPOS>ATOM
      1 O           3.2430  -12.7420   93.7100 O.2       1 <1>     -0.540117
      2 C           4.1720  -13.4590   93.3730 C.2       1 <1>      0.467087
      3 C1          4.2990  -14.8650   94.0040 C.3       1 <1>      0.075034
      4 C2          4.7930  -14.7220   95.4480 C.3       1 <1>     -0.239997
      5 C3          6.2330  -14.2290   95.5750 C.3       1 <1>      0.068939
      6 C4          7.2370  -15.2940   95.1370 C.3       1 <1>     -0.013432
      7 C5          8.6720  -14.7970   95.2690 C.3       1 <1>     -0.014618
      8 C6          8.9760  -14.3360   96.6890 C.3       1 <1>      0.001080
      9 C7          7.9920  -13.2730   97.1330 C.3       1 <1>     -0.014618
     10 C8          6.5610  -13.7720   96.9970 C.3       1 <1>     -0.013432
     11 N           2.9500  -15.4600   93.9570 N.4       1 <1>     -0.396009
     12 H           2.6390  -15.5580   92.9380 H         1 <1>      0.331549
     13 H1          2.2630  -14.8280   94.4810 H         1 <1>      0.331549
     14 H2          2.9700  -16.4250   94.4180 H         1 <1>      0.331549
     15 N1          5.0810  -13.0580   92.4700 N.am      1 <1>     -0.179857
     16 C9          4.9350  -11.7290   91.8560 C.3       1 <1>     -0.016700
     17 C10         6.0700  -11.6670   90.8280 C.3       1 <1>     -0.121994
     18 C11         7.0160  -12.8070   91.1720 C.3       1 <1>     -0.030361
     19 C12         6.1990  -13.8350   91.9030 C.3       1 <1>     -0.058250
     20 C13         3.5820  -11.6770   91.1580 C.2       1 <1>      0.548993
     21 O1          3.2060  -12.6070   90.4340 O.2       1 <1>     -0.481578
     22 N2          2.8750  -10.5640   91.3190 N.am      1 <1>     -0.545857
     23 C14         1.5240  -10.4410   90.7800 C.3       1 <1>     -0.009592
     24 C15         0.5000  -10.4950   91.8850 C.ar      1 <1>      0.009650
     25 C16         0.1020  -11.6920   92.4570 C.ar      1 <1>     -0.072922
     26 C17        -0.8340  -11.7220   93.4710 C.ar      1 <1>     -0.155976
     27 C18        -1.3950  -10.5420   93.9550 C.ar      1 <1>     -0.104510
     28 C19        -2.4290  -10.5700   94.9980 C.2       1 <1>      0.674483
     29 N3         -3.0910  -11.6360   95.3030 N.3       1 <1>     -0.769517
     30 N4         -2.6740   -9.4350   95.6600 N.3       1 <1>     -0.769517
     31 C20        -0.9940   -9.3510   93.3860 C.ar      1 <1>     -0.155976
     32 C21        -0.0630   -9.3270   92.3680 C.ar      1 <1>     -0.072922
     33 H3          5.0110  -15.4980   93.4740 H         1 <1>      0.110407
     34 H4          4.7220  -15.6970   95.9310 H         1 <1>      0.113023
     35 H5          4.1430  -14.0140   95.9620 H         1 <1>      0.113023
     36 H6          6.3180  -13.3710   94.9080 H         1 <1>     -0.003587
     37 H7          7.0460  -15.5530   94.0960 H         1 <1>      0.003397
     38 H8          7.1100  -16.1790   95.7610 H         1 <1>      0.003397
     39 H9          8.8210  -13.9610   94.5860 H         1 <1>      0.018384
     40 H10         9.3530  -15.6070   95.0060 H         1 <1>      0.018384
     41 H11         9.9850  -13.9250   96.7230 H         1 <1>      0.020178
     42 H12         8.9080  -15.1890   97.3640 H         1 <1>      0.020178
     43 H13         8.1210  -12.3850   96.5140 H         1 <1>      0.018384
     44 H14         8.1850  -13.0200   98.1760 H         1 <1>      0.018384
     45 H15         6.4180  -14.6120   97.6760 H         1 <1>      0.003397
     46 H16         5.8820  -12.9640   97.2700 H         1 <1>      0.003397
     47 H17         4.9830  -10.9030   92.5650 H         1 <1>      0.052181
     48 H18         6.5900  -10.7110   90.8960 H         1 <1>      0.091969
     49 H19         5.6750  -11.7950   89.8200 H         1 <1>      0.091969
     50 H20         7.8240  -12.4460   91.8080 H         1 <1>      0.060409
     51 H21         7.4340  -13.2370   90.2620 H         1 <1>      0.060409
     52 H22         5.8330  -14.5990   91.2170 H         1 <1>      0.102396
     53 H23         6.7840  -14.3060   92.6930 H         1 <1>      0.102396
     54 H24         3.2800   -9.7880   91.8240 H         1 <1>      0.318023
     55 H25         1.3410  -11.2590   90.0830 H         1 <1>      0.123665
     56 H26         1.4340   -9.4900   90.2550 H         1 <1>      0.123665
     57 H27         0.5310  -12.6180   92.1040 H         1 <1>      0.149479
     58 H28        -1.1340  -12.6690   93.8930 H         1 <1>      0.161075
     59 H29        -3.7860  -11.6070   96.0350 H         1 <1>      0.432326
     60 H30        -2.9140  -12.4990   94.8090 H         1 <1>      0.432326
     61 H31        -3.3710   -9.4170   96.3910 H         1 <1>      0.432326
     62 H32        -2.1620   -8.5950   95.4300 H         1 <1>      0.432326
     63 H33        -1.4150   -8.4230   93.7430 H         1 <1>      0.161075
     64 H34         0.2310   -8.3800   91.9410 H         1 <1>      0.149479
@<TRIPOS>BOND
     1    1    2 2   
     2    2    3 1   
     3    2   15 am  
     4    3    4 1   
     5    3   11 1   
     6    3   33 1   
     7    4    5 1   
     8    4   34 1   
     9    4   35 1   
    10    5    6 1   
    11    5   10 1   
    12    5   36 1   
    13    6    7 1   
    14    6   37 1   
    15    6   38 1   
    16    7    8 1   
    17    7   39 1   
    18    7   40 1   
    19    8    9 1   
    20    8   41 1   
    21    8   42 1   
    22    9   10 1   
    23    9   43 1   
    24    9   44 1   
    25   10   45 1   
    26   10   46 1   
    27   11   12 1   
    28   11   13 1   
    29   11   14 1   
    30   15   16 1   
    31   15   19 1   
    32   16   17 1   
    33   16   20 1   
    34   16   47 1   
    35   17   18 1   
    36   17   48 1   
    37   17   49 1   
    38   18   19 1   
    39   18   50 1   
    40   18   51 1   
    41   19   52 1   
    42   19   53 1   
    43   20   21 2   
    44   20   22 am  
    45   22   23 1   
    46   22   54 1   
    47   23   24 1   
    48   23   55 1   
    49   23   56 1   
    50   24   25 ar  
    51   24   32 ar  
    52   25   26 ar  
    53   25   57 1   
    54   26   27 ar  
    55   26   58 1   
    56   27   28 1   
    57   27   31 ar  
    58   28   29 2   
    59   28   30 1   
    60   29   59 1   
    61   29   60 1   
    62   30   61 1   
    63   30   62 1   
    64   31   32 ar  
    65   31   63 1   
    66   32   64 1   
@<TRIPOS>SUBSTRUCTURE
     1 <1>         1 TEMP              0 ****  ****    0 ROOT
