@<TRIPOS>MOLECULE
XXX_1
   64    66     1     0     0
SMALL
No Charge or Current Charge


@<TRIPOS>ATOM
      1 O1_        16.1410  -12.5260   22.8420 O.2       1 XXX     -0.486191
      2 C8_        17.0990  -13.1600   22.4210 C.2       1 XXX      0.268687
      3 C__        17.4480  -14.5460   23.0420 C.3       1 XXX      0.127246
      4 C1_        18.0020  -14.3510   24.4540 C.3       1 XXX     -0.256055
      5 C2_        19.3420  -13.6250   24.5130 C.3       1 XXX     -0.001685
      6 C7_        20.4790  -14.4940   23.9860 C.3       1 XXX      0.017276
      7 C6_        21.8210  -13.7780   24.0850 C.3       1 XXX     -0.024190
      8 C5_        22.1140  -13.3560   25.5120 C.3       1 XXX      0.015493
      9 C4_        20.9830  -12.4960   26.0640 C.3       1 XXX     -0.024190
     10 C3_        19.6470  -13.2160   25.9420 C.3       1 XXX      0.017276
     11 N__        16.2110  -15.3310   23.1360 N.4       1 XXX     -0.121188
     12 N1_        17.8480  -12.7030   21.4060 N.am      1 XXX     -0.096736
     13 C12        17.5320  -11.4150   20.7770 C.3       1 XXX     -0.008959
     14 C11        18.3960  -11.4280   19.5090 C.3       1 XXX     -0.013957
     15 C10        19.6030  -12.2670   19.9150 C.3       1 XXX     -0.056969
     16 C9_        19.0200  -13.3520   20.7940 C.3       1 XXX     -0.051199
     17 C13        16.0460  -11.3000   20.4360 C.2       1 XXX      0.453194
     18 O__        15.4480  -12.2330   19.8920 O.2       1 XXX     -0.573493
     19 N2_        15.4490  -10.1450   20.7530 N.am      1 XXX     -0.297808
     20 C14        14.0410   -9.9210   20.4470 C.3       1 XXX     -0.143405
     21 C15        13.1590   -9.9230   21.6670 C.ar      1 XXX      0.050328
     22 C20        12.3370  -11.0260   21.9580 C.ar      1 XXX     -0.022586
     23 C21        12.3980  -12.2940   21.1630 C.3       1 XXX      0.005303
     24 N3_        13.0340  -13.4180   21.8520 N.4       1 XXX     -0.193552
     25 C19        11.4670  -10.9580   23.0420 C.ar      1 XXX     -0.207290
     26 C18        11.4050   -9.8290   23.8360 C.ar      1 XXX     -0.029725
     27 C17        12.2440   -8.7740   23.5580 C.ar      1 XXX     -0.040599
     28 Cl__       12.2200   -7.3600   24.5760 Cl        1 XXX     -0.058479
     29 C16        13.1120   -8.8110   22.4960 C.ar      1 XXX     -0.075799
     30 H1_        18.1880  -15.0530   22.4230 H         1 XXX      0.063951
     31 H2_        18.1270  -15.3330   24.9090 H         1 XXX      0.118446
     32 H3_        17.2770  -13.7740   25.0280 H         1 XXX      0.118446
     33 H4_        19.2650  -12.7420   23.8790 H         1 XXX      0.033075
     34 H5_        20.2840  -14.7380   22.9420 H         1 XXX      0.013913
     35 H6_        20.5230  -15.4120   24.5710 H         1 XXX      0.013913
     36 H7_        21.7990  -12.8920   23.4500 H         1 XXX      0.012591
     37 H8_        22.6090  -14.4500   23.7440 H         1 XXX      0.012591
     38 H9_        23.0410  -12.7830   25.5320 H         1 XXX      0.029661
     39 H10        22.2230  -14.2450   26.1330 H         1 XXX      0.029661
     40 H11        20.9380  -11.5620   25.5040 H         1 XXX      0.012591
     41 H12        21.1780  -12.2800   27.1150 H         1 XXX      0.012591
     42 H13        19.6730  -14.1100   26.5650 H         1 XXX      0.013913
     43 H14        18.8570  -12.5510   26.2930 H         1 XXX      0.013913
     44 H17        15.8240  -15.4620   22.2120 H         1 XXX      0.245108
     45 H15        15.5440  -14.8400   23.7140 H         1 XXX      0.245108
     46 H16        16.4140  -16.2310   23.5470 H         1 XXX      0.245108
     47 H18        17.7350  -10.5650   21.4280 H         1 XXX      0.121012
     48 H19        18.6980  -10.4180   19.2320 H         1 XXX      0.057439
     49 H20        17.8620  -11.8890   18.6780 H         1 XXX      0.057439
     50 H21        20.3230  -11.6660   20.4690 H         1 XXX      0.073469
     51 H22        20.0870  -12.6980   19.0390 H         1 XXX      0.073469
     52 H23        18.7220  -14.2160   20.2010 H         1 XXX      0.073300
     53 H24        19.7350  -13.6630   21.5550 H         1 XXX      0.073300
     54 H25        15.9810   -9.4180   21.2100 H         1 XXX      0.264683
     55 H26        13.7030  -10.7100   19.7750 H         1 XXX      0.134097
     56 H27        13.9440   -8.9550   19.9520 H         1 XXX      0.134097
     57 H28        12.9580  -12.0950   20.2490 H         1 XXX      0.108074
     58 H29        11.3790  -12.5850   20.9090 H         1 XXX      0.108074
     59 H32        12.5150  -13.6360   22.6910 H         1 XXX      0.278666
     60 H30        13.9820  -13.1700   22.0970 H         1 XXX      0.278666
     61 H31        13.0440  -14.2240   21.2430 H         1 XXX      0.278666
     62 H33        10.8300  -11.8010   23.2660 H         1 XXX      0.178113
     63 H34        10.7100   -9.7750   24.6610 H         1 XXX      0.165502
     64 H35        13.7620   -7.9700   22.3040 H         1 XXX      0.136605
@<TRIPOS>BOND
     1    1    2 2   
     2    2    3 1   
     3    2   12 am  
     4    3    4 1   
     5    3   11 1   
     6    3   30 1   
     7    4    5 1   
     8    4   31 1   
     9    4   32 1   
    10    5    6 1   
    11    5   10 1   
    12    5   33 1   
    13    6    7 1   
    14    6   34 1   
    15    6   35 1   
    16    7    8 1   
    17    7   36 1   
    18    7   37 1   
    19    8    9 1   
    20    8   38 1   
    21    8   39 1   
    22    9   10 1   
    23    9   40 1   
    24    9   41 1   
    25   10   42 1   
    26   10   43 1   
    27   11   44 1   
    28   11   45 1   
    29   11   46 1   
    30   12   13 1   
    31   12   16 1   
    32   13   14 1   
    33   13   17 1   
    34   13   47 1   
    35   14   15 1   
    36   14   48 1   
    37   14   49 1   
    38   15   16 1   
    39   15   50 1   
    40   15   51 1   
    41   16   52 1   
    42   16   53 1   
    43   17   18 2   
    44   17   19 am  
    45   19   20 1   
    46   19   54 1   
    47   20   21 1   
    48   20   55 1   
    49   20   56 1   
    50   21   22 ar  
    51   21   29 ar  
    52   22   23 1   
    53   22   25 ar  
    54   23   24 1   
    55   23   57 1   
    56   23   58 1   
    57   24   59 1   
    58   24   60 1   
    59   24   61 1   
    60   25   26 ar  
    61   25   62 1   
    62   26   27 ar  
    63   26   63 1   
    64   27   28 1   
    65   27   29 ar  
    66   29   64 1   
@<TRIPOS>SUBSTRUCTURE
     1 XXX         1 TEMP              0 ****  ****    0 ROOT
