@<TRIPOS>MOLECULE
CC01.pdb.B
   53    55     1     0     0
SMALL
No Charge or Current Charge


@<TRIPOS>ATOM
      1 O1        142.5300  -15.4610   90.9820 O.2       1 Q16     -0.483297
      2 C13       143.0960  -14.5770   91.6270 C.2       1 Q16      0.499648
      3 N1        142.5070  -13.4300   91.9740 N.am      1 Q16     -0.508419
      4 H1        143.0380  -12.7500   92.4990 H         1 Q16      0.286875
      5 C14       141.1270  -13.1240   91.6230 C.3       1 Q16      0.002838
      6 H2        140.9190  -13.5400   90.6370 H         1 Q16      0.118933
      7 H3        141.0080  -12.0410   91.5930 H         1 Q16      0.118933
      8 C15       140.1300  -13.6900   92.6030 C.ar      1 Q16      0.114093
      9 C19       139.5440  -12.8840   93.5720 C.ar      1 Q16     -0.342549
     10 H4        139.7940  -11.8350   93.6390 H         1 Q16      0.148040
     11 C18       138.6210  -13.4560   94.4630 C.ar      1 Q16      0.635361
     12 N3        138.0300  -12.7110   95.4260 N.3       1 Q16     -0.918203
     13 H5        137.3660  -13.1360   96.0570 H         1 Q16      0.384098
     14 H6        138.2530  -11.7300   95.5130 H         1 Q16      0.384098
     15 N2        138.2770  -14.7540   94.4060 N.ar      1 Q16     -0.582680
     16 C17       138.8610  -15.5090   93.4660 C.ar      1 Q16      0.227206
     17 H7        138.5960  -16.5550   93.4140 H         1 Q16      0.117146
     18 C16       139.7790  -15.0260   92.5640 C.ar      1 Q16     -0.293551
     19 H8        140.2220  -15.6850   91.8320 H         1 Q16      0.167809
     20 C12       144.5320  -14.7610   92.1130 C.3       1 Q16      0.011477
     21 H9        144.6980  -13.9480   92.8200 H         1 Q16      0.100385
     22 C11       145.5340  -14.7440   90.9500 C.3       1 Q16     -0.000974
     23 H10       145.9570  -13.7480   90.8180 H         1 Q16      0.041953
     24 H11       145.0570  -15.0620   90.0230 H         1 Q16      0.041953
     25 C10       146.6100  -15.7380   91.3730 C.3       1 Q16     -0.049915
     26 H12       147.3230  -15.2730   92.0540 H         1 Q16      0.056661
     27 H13       147.1390  -16.1310   90.5050 H         1 Q16      0.056661
     28 C9        145.8310  -16.8290   92.0700 C.3       1 Q16     -0.050070
     29 H14       146.4440  -17.3310   92.8180 H         1 Q16      0.068495
     30 H15       145.4580  -17.5620   91.3550 H         1 Q16      0.068495
     31 N         144.7220  -16.0930   92.7020 N.am      1 Q16     -0.133754
     32 C8        143.9100  -16.4900   93.6950 C.2       1 Q16      0.320536
     33 O         143.0550  -15.7520   94.1550 O.2       1 Q16     -0.464425
     34 C7        144.1010  -17.8770   94.3100 C.3       1 Q16      0.077438
     35 H16       144.8920  -18.3770   93.7510 H         1 Q16      0.032553
     36 N4        142.7830  -18.5260   94.2160 N.4       1 Q16     -0.030635
     37 H18       142.8450  -19.4680   94.5740 H         1 Q16      0.204715
     38 H19       142.4880  -18.5520   93.2500 H         1 Q16      0.204715
     39 H17       142.1110  -18.0030   94.7590 H         1 Q16      0.204715
     40 C6        144.6550  -17.9560   95.7230 C.3       1 Q16     -0.060951
     41 H20       144.6670  -19.0010   96.0330 H         1 Q16      0.086025
     42 H21       144.0010  -17.3880   96.3840 H         1 Q16      0.086025
     43 C3        146.0540  -17.4040   95.8420 C.ar      1 Q16     -0.034439
     44 C2        147.1180  -18.0310   95.2080 C.ar      1 Q16     -0.110248
     45 H22       146.9400  -18.9150   94.6130 H         1 Q16      0.127405
     46 C1        148.4060  -17.5360   95.3300 C.ar      1 Q16     -0.162841
     47 H23       149.2240  -18.0340   94.8300 H         1 Q16      0.158984
     48 C4        146.3110  -16.2680   96.5980 C.ar      1 Q16     -0.110248
     49 H24       145.4970  -15.7630   97.0960 H         1 Q16      0.127405
     50 C5        147.6000  -15.7750   96.7210 C.ar      1 Q16     -0.162841
     51 H25       147.7840  -14.8920   97.3140 H         1 Q16      0.158984
     52 C         148.6480  -16.4090   96.0880 C.ar      1 Q16     -0.094407
     53 H26       149.6530  -16.0250   96.1850 H         1 Q16      0.153789
@<TRIPOS>BOND
     1    1    2 2   
     2    2    3 am  
     3    2   20 1   
     4    3    4 1   
     5    3    5 1   
     6    5    6 1   
     7    5    7 1   
     8    5    8 1   
     9    8    9 ar  
    10    8   18 ar  
    11    9   10 1   
    12    9   11 ar  
    13   11   12 1   
    14   11   15 ar  
    15   12   13 1   
    16   12   14 1   
    17   15   16 ar  
    18   16   17 1   
    19   16   18 ar  
    20   18   19 1   
    21   20   21 1   
    22   20   22 1   
    23   20   31 1   
    24   22   23 1   
    25   22   24 1   
    26   22   25 1   
    27   25   26 1   
    28   25   27 1   
    29   25   28 1   
    30   28   29 1   
    31   28   30 1   
    32   28   31 1   
    33   31   32 am  
    34   32   33 2   
    35   32   34 1   
    36   34   35 1   
    37   34   36 1   
    38   34   40 1   
    39   36   37 1   
    40   36   38 1   
    41   36   39 1   
    42   40   41 1   
    43   40   42 1   
    44   40   43 1   
    45   43   44 ar  
    46   43   48 ar  
    47   44   45 1   
    48   44   46 ar  
    49   46   47 1   
    50   46   52 ar  
    51   48   49 1   
    52   48   50 ar  
    53   50   51 1   
    54   50   52 ar  
    55   52   53 1   
@<TRIPOS>SUBSTRUCTURE
     1 Q16         1 TEMP              0 ****  ****    0 ROOT
