@<TRIPOS>MOLECULE
cc04.pdb.A
   53    55     1     0     0
SMALL
No Charge or Current Charge


@<TRIPOS>ATOM
      1 O1         72.9050  -15.8440   90.7320 O.2       1 XXX     -0.432304
      2 C13        73.3890  -14.9480   91.4220 C.2       1 XXX      0.372307
      3 N1         72.7240  -13.8350   91.7370 N.am      1 XXX     -0.403657
      4 H1         73.1910  -13.1270   92.2860 H         1 XXX      0.307452
      5 C14        71.3490  -13.6050   91.3170 C.3       1 XXX     -0.097830
      6 H2         71.1930  -14.0970   90.3570 H         1 XXX      0.123455
      7 H3         71.1960  -12.5320   91.2040 H         1 XXX      0.123455
      8 C15        70.3310  -14.1340   92.2970 C.ar      1 XXX     -0.078034
      9 C19        69.5250  -13.2760   93.0210 C.ar      1 XXX      0.193977
     10 H4         69.6620  -12.2140   92.8780 H         1 XXX      0.097522
     11 N2         68.5850  -13.6740   93.8890 N.ar      1 XXX     -0.643456
     12 C18        68.4080  -14.9950   94.0750 C.ar      1 XXX      0.800611
     13 N3         67.4700  -15.3770   94.9710 N.3       1 XXX     -1.003421
     14 H5         67.3150  -16.3580   95.1530 H         1 XXX      0.417038
     15 H6         66.9240  -14.6810   95.4590 H         1 XXX      0.417038
     16 C17        69.1830  -15.9430   93.3810 C.ar      1 XXX     -0.403570
     17 H7         69.0290  -17.0010   93.5350 H         1 XXX      0.189198
     18 C16        70.1450  -15.4910   92.4990 C.ar      1 XXX     -0.107117
     19 H8         70.7570  -16.2010   91.9630 H         1 XXX      0.187496
     20 C12        74.7920  -15.0940   92.0070 C.3       1 XXX      0.061206
     21 H9         74.9070  -14.2830   92.7260 H         1 XXX      0.054214
     22 C11        75.8530  -15.0630   90.8980 C.3       1 XXX     -0.089567
     23 H10        76.2840  -14.0660   90.8040 H         1 XXX      0.063261
     24 H11        75.4220  -15.3640   89.9430 H         1 XXX      0.063261
     25 C10        76.9040  -16.0640   91.3540 C.3       1 XXX     -0.016144
     26 H12        77.5960  -15.6060   92.0610 H         1 XXX      0.050551
     27 H13        77.4610  -16.4560   90.5030 H         1 XXX      0.050551
     28 C9         76.1000  -17.1550   92.0190 C.3       1 XXX     -0.038586
     29 H14        76.6830  -17.6530   92.7940 H         1 XXX      0.082597
     30 H15        75.7620  -17.8910   91.2900 H         1 XXX      0.082597
     31 N          74.9610  -16.4260   92.6010 N.am      1 XXX     -0.218679
     32 C8         74.1040  -16.8490   93.5470 C.2       1 XXX      0.557317
     33 O          73.1950  -16.1390   93.9460 O.2       1 XXX     -0.539262
     34 C7         74.2850  -18.2640   94.1290 C.3       1 XXX     -0.100474
     35 H16        75.0350  -18.8190   93.5660 H         1 XXX      0.133781
     36 N4         72.9500  -18.8940   94.0630 N.4       1 XXX     -0.131840
     37 H18        72.9990  -19.8270   94.4460 H         1 XXX      0.244058
     38 H19        72.6470  -18.9400   93.1010 H         1 XXX      0.244058
     39 H17        72.2920  -18.3450   94.5970 H         1 XXX      0.244058
     40 C6         74.7800  -18.2260   95.5800 C.3       1 XXX     -0.127278
     41 H20        74.7380  -19.2380   95.9820 H         1 XXX      0.096905
     42 H21        74.1140  -17.5800   96.1520 H         1 XXX      0.096905
     43 C3         76.1900  -17.7110   95.7390 C.ar      1 XXX      0.045822
     44 C2         77.2550  -18.3670   95.1410 C.ar      1 XXX     -0.110450
     45 H22        77.0760  -19.2650   94.5680 H         1 XXX      0.113051
     46 C1         78.5460  -17.8830   95.2710 C.ar      1 XXX     -0.190803
     47 H23        79.3650  -18.4000   94.7930 H         1 XXX      0.173712
     48 C4         76.4480  -16.5650   96.4770 C.ar      1 XXX     -0.110450
     49 H24        75.6310  -16.0400   96.9500 H         1 XXX      0.113051
     50 C5         77.7400  -16.0860   96.6140 C.ar      1 XXX     -0.190803
     51 H25        77.9260  -15.1950   97.1960 H         1 XXX      0.173712
     52 C          78.7900  -16.7440   96.0090 C.ar      1 XXX     -0.099660
     53 H26        79.7980  -16.3690   96.1130 H         1 XXX      0.159170
@<TRIPOS>BOND
     1    1    2 2   
     2    2    3 am  
     3    2   20 1   
     4    3    4 1   
     5    3    5 1   
     6    5    6 1   
     7    5    7 1   
     8    5    8 1   
     9    8    9 ar  
    10    8   18 ar  
    11    9   10 1   
    12    9   11 ar  
    13   11   12 ar  
    14   12   13 1   
    15   12   16 ar  
    16   13   14 1   
    17   13   15 1   
    18   16   17 1   
    19   16   18 ar  
    20   18   19 1   
    21   20   21 1   
    22   20   22 1   
    23   20   31 1   
    24   22   23 1   
    25   22   24 1   
    26   22   25 1   
    27   25   26 1   
    28   25   27 1   
    29   25   28 1   
    30   28   29 1   
    31   28   30 1   
    32   28   31 1   
    33   31   32 am  
    34   32   33 2   
    35   32   34 1   
    36   34   35 1   
    37   34   36 1   
    38   34   40 1   
    39   36   37 1   
    40   36   38 1   
    41   36   39 1   
    42   40   41 1   
    43   40   42 1   
    44   40   43 1   
    45   43   44 ar  
    46   43   48 ar  
    47   44   45 1   
    48   44   46 ar  
    49   46   47 1   
    50   46   52 ar  
    51   48   49 1   
    52   48   50 ar  
    53   50   51 1   
    54   50   52 ar  
    55   52   53 1   
@<TRIPOS>SUBSTRUCTURE
     1 XXX         1 TEMP              0 ****  ****    0 ROOT
