@<TRIPOS>MOLECULE
cc05.pdb.B
   56    58     1     0     0
SMALL
No Charge or Current Charge


@<TRIPOS>ATOM
      1 O2         73.3690  -16.3410   94.5440 O.2       1 Q16     -0.474228
      2 C13        74.3160  -17.0060   94.1580 C.2       1 Q16      0.337317
      3 C14        74.5460  -18.4140   94.7710 C.3       1 Q16      0.060089
      4 H1         75.2780  -18.9650   94.1810 H         1 Q16      0.038648
      5 N2         73.2430  -19.1000   94.7850 N.4       1 Q16     -0.033676
      6 H4         72.8960  -19.1840   93.8400 H         1 Q16      0.197877
      7 H2         72.5880  -18.5660   95.3380 H         1 Q16      0.197877
      8 H3         73.3510  -20.0200   95.1870 H         1 Q16      0.197877
      9 C15        75.0900  -18.3050   96.2070 C.3       1 Q16     -0.041409
     10 H5         75.1020  -19.3030   96.6440 H         1 Q16      0.077949
     11 H6         74.4180  -17.6660   96.7790 H         1 Q16      0.077949
     12 C16        76.4820  -17.7310   96.3000 C.ar      1 Q16     -0.012169
     13 C21        76.7110  -16.5260   96.9470 C.ar      1 Q16     -0.128118
     14 H7         75.8830  -15.9920   97.3900 H         1 Q16      0.133022
     15 C20        77.9880  -16.0010   97.0310 C.ar      1 Q16     -0.166354
     16 H8         78.1510  -15.0610   97.5370 H         1 Q16      0.163458
     17 C19        79.0530  -16.6730   96.4720 C.ar      1 Q16     -0.080646
     18 H9         80.0500  -16.2640   96.5410 H         1 Q16      0.149768
     19 C18        78.8390  -17.8700   95.8250 C.ar      1 Q16     -0.166354
     20 H10        79.6700  -18.4000   95.3830 H         1 Q16      0.163458
     21 C17        77.5620  -18.3960   95.7390 C.ar      1 Q16     -0.128118
     22 H11        77.4050  -19.3350   95.2290 H         1 Q16      0.133022
     23 N1         75.1440  -16.5590   93.1960 N.am      1 Q16     -0.160529
     24 C12        76.3190  -17.2340   92.6190 C.3       1 Q16     -0.044523
     25 H12        76.0190  -18.0040   91.9080 H         1 Q16      0.081222
     26 H13        76.9360  -17.6800   93.3990 H         1 Q16      0.081222
     27 C11        77.0510  -16.1100   91.9240 C.3       1 Q16     -0.049527
     28 H14        77.6240  -16.4870   91.0770 H         1 Q16      0.055509
     29 H15        77.7200  -15.5990   92.6160 H         1 Q16      0.055509
     30 C10        75.9440  -15.1770   91.4550 C.3       1 Q16     -0.043211
     31 H16        75.5410  -15.5080   90.4980 H         1 Q16      0.060193
     32 H17        76.3150  -14.1570   91.3600 H         1 Q16      0.060193
     33 C9         74.8730  -15.2640   92.5530 C.3       1 Q16      0.013606
     34 H18        74.9140  -14.4250   93.2480 H         1 Q16      0.093254
     35 C8         73.4670  -15.2360   91.9580 C.2       1 Q16      0.506490
     36 O1         73.0260  -16.2200   91.3650 O.2       1 Q16     -0.492010
     37 N          72.7680  -14.1080   92.1250 N.am      1 Q16     -0.490529
     38 H19        73.1960  -13.3380   92.6180 H         1 Q16      0.280259
     39 C7         71.4090  -13.9520   91.6190 C.3       1 Q16     -0.018545
     40 H20        71.1640  -14.8210   91.0080 H         1 Q16      0.121358
     41 H21        71.3690  -13.0530   91.0040 H         1 Q16      0.121358
     42 C5         70.3800  -13.8300   92.7150 C.ar      1 Q16     -0.037059
     43 C4         69.5050  -14.8650   93.0020 C.ar      1 Q16     -0.114586
     44 H22        69.5430  -15.7740   92.4190 H         1 Q16      0.144327
     45 C3         68.5810  -14.7470   94.0290 C.ar      1 Q16     -0.176581
     46 H23        67.9000  -15.5600   94.2340 H         1 Q16      0.168353
     47 C2         68.5250  -13.5950   94.7930 C.ar      1 Q16     -0.157389
     48 H24        67.8100  -13.5040   95.5970 H         1 Q16      0.147554
     49 C6         70.3130  -12.6700   93.4750 C.ar      1 Q16     -0.071578
     50 H25        70.9780  -11.8470   93.2580 H         1 Q16      0.111088
     51 C1         69.4000  -12.5620   94.5090 C.ar      1 Q16      0.123011
     52 O          69.5190  -11.3830   95.1960 O.3       1 Q16     -0.309852
     53 C          68.7040  -11.1910   96.3460 C.3       1 Q16     -0.013467
     54 H26        68.9120  -10.2130   96.7800 H         1 Q16      0.085880
     55 H27        68.9220  -11.9670   97.0790 H         1 Q16      0.085880
     56 H28        67.6540  -11.2450   96.0600 H         1 Q16      0.085880
@<TRIPOS>BOND
     1    1    2 2   
     2    2    3 1   
     3    2   23 am  
     4    3    4 1   
     5    3    5 1   
     6    3    9 1   
     7    5    6 1   
     8    5    7 1   
     9    5    8 1   
    10    9   10 1   
    11    9   11 1   
    12    9   12 1   
    13   12   13 ar  
    14   12   21 ar  
    15   13   14 1   
    16   13   15 ar  
    17   15   16 1   
    18   15   17 ar  
    19   17   18 1   
    20   17   19 ar  
    21   19   20 1   
    22   19   21 ar  
    23   21   22 1   
    24   23   24 1   
    25   23   33 1   
    26   24   25 1   
    27   24   26 1   
    28   24   27 1   
    29   27   28 1   
    30   27   29 1   
    31   27   30 1   
    32   30   31 1   
    33   30   32 1   
    34   30   33 1   
    35   33   34 1   
    36   33   35 1   
    37   35   36 2   
    38   35   37 am  
    39   37   38 1   
    40   37   39 1   
    41   39   40 1   
    42   39   41 1   
    43   39   42 1   
    44   42   43 ar  
    45   42   49 ar  
    46   43   44 1   
    47   43   45 ar  
    48   45   46 1   
    49   45   47 ar  
    50   47   48 1   
    51   47   51 ar  
    52   49   50 1   
    53   49   51 ar  
    54   51   52 1   
    55   52   53 1   
    56   53   54 1   
    57   53   55 1   
    58   53   56 1   
@<TRIPOS>SUBSTRUCTURE
     1 Q16         1 TEMP              0 ****  ****    0 ROOT
