@<TRIPOS>MOLECULE
cc08.pdb.B
   53    55     1     0     0
SMALL
No Charge or Current Charge


@<TRIPOS>ATOM
      1 O1         73.2060  -16.2980   91.1120 O.2       1 Q16     -0.474198
      2 C13        73.6360  -15.3320   91.7390 C.2       1 Q16      0.446888
      3 N1         72.9240  -14.2170   91.9390 N.am      1 Q16     -0.452800
      4 H1         73.3510  -13.4500   92.4380 H         1 Q16      0.285634
      5 C14        71.5540  -14.0680   91.4630 C.3       1 Q16     -0.035455
      6 H2         71.2660  -14.9830   90.9460 H         1 Q16      0.117424
      7 H3         71.5190  -13.2300   90.7660 H         1 Q16      0.117424
      8 C15        70.5610  -13.8110   92.5720 C.ar      1 Q16     -0.004734
      9 C20        69.5760  -14.7370   92.8810 C.ar      1 Q16     -0.140073
     10 H4         69.4790  -15.6290   92.2800 H         1 Q16      0.154809
     11 C19        68.7140  -14.5370   93.9470 C.ar      1 Q16     -0.267201
     12 H5         67.9530  -15.2690   94.1730 H         1 Q16      0.175151
     13 C18        68.8320  -13.3930   94.7240 C.ar      1 Q16      0.354420
     14 O2         68.0200  -13.1890   95.8060 O.3       1 Q16     -0.562525
     15 H6         67.1420  -13.5710   95.7320 H         1 Q16      0.413187
     16 C17        69.7980  -12.4510   94.4130 C.ar      1 Q16     -0.267201
     17 H7         69.8880  -11.5530   95.0060 H         1 Q16      0.175151
     18 C16        70.6480  -12.6630   93.3410 C.ar      1 Q16     -0.140073
     19 H8         71.3930  -11.9190   93.1000 H         1 Q16      0.154809
     20 C12        75.0340  -15.3790   92.3510 C.3       1 Q16      0.052132
     21 H9         75.0830  -14.5590   93.0670 H         1 Q16      0.077409
     22 C11        76.1060  -15.2860   91.2570 C.3       1 Q16     -0.135411
     23 H10        76.4800  -14.2660   91.1690 H         1 Q16      0.087270
     24 H11        75.7060  -15.6100   90.2960 H         1 Q16      0.087270
     25 C10        77.2020  -16.2210   91.7240 C.3       1 Q16     -0.056238
     26 H12        77.8510  -15.7270   92.4470 H         1 Q16      0.061174
     27 H13        77.7980  -16.5720   90.8810 H         1 Q16      0.061174
     28 C9         76.4530  -17.3630   92.3660 C.3       1 Q16     -0.068927
     29 H14        77.0570  -17.8460   93.1340 H         1 Q16      0.098412
     30 H15        76.1510  -18.1020   91.6230 H         1 Q16      0.098412
     31 N          75.2820  -16.6950   92.9550 N.am      1 Q16     -0.138311
     32 C8         74.4680  -17.1370   93.9290 C.2       1 Q16      0.451585
     33 O          73.5520  -16.4530   94.3470 O.2       1 Q16     -0.506731
     34 C7         74.7000  -18.5450   94.5270 C.3       1 Q16     -0.065341
     35 H16        75.4320  -19.0990   93.9400 H         1 Q16      0.095154
     36 N2         73.4070  -19.2490   94.5370 N.4       1 Q16     -0.051918
     37 H19        73.0670  -19.3410   93.5910 H         1 Q16      0.221280
     38 H17        72.7410  -18.7230   95.0850 H         1 Q16      0.221280
     39 H18        73.5260  -20.1660   94.9430 H         1 Q16      0.221280
     40 C6         75.2100  -18.3970   95.9740 C.3       1 Q16     -0.234116
     41 H20        75.1910  -19.3800   96.4440 H         1 Q16      0.123822
     42 H21        74.5350  -17.7270   96.5060 H         1 Q16      0.123822
     43 C3         76.6080  -17.8470   96.0900 C.ar      1 Q16      0.091551
     44 C2         76.8450  -16.6420   96.7340 C.ar      1 Q16     -0.112988
     45 H22        76.0230  -16.1110   97.1910 H         1 Q16      0.113187
     46 C1         78.1210  -16.1120   96.7990 C.ar      1 Q16     -0.190141
     47 H23        78.2870  -15.1690   97.2990 H         1 Q16      0.172809
     48 C4         77.6860  -18.5130   95.5230 C.ar      1 Q16     -0.112988
     49 H24        77.5260  -19.4560   95.0210 H         1 Q16      0.113187
     50 C5         78.9630  -17.9850   95.5930 C.ar      1 Q16     -0.190141
     51 H25        79.7910  -18.5170   95.1490 H         1 Q16      0.172809
     52 C          79.1810  -16.7820   96.2280 C.ar      1 Q16     -0.090453
     53 H26        80.1770  -16.3670   96.2780 H         1 Q16      0.158050
@<TRIPOS>BOND
     1    1    2 2   
     2    2    3 am  
     3    2   20 1   
     4    3    4 1   
     5    3    5 1   
     6    5    6 1   
     7    5    7 1   
     8    5    8 1   
     9    8    9 ar  
    10    8   18 ar  
    11    9   10 1   
    12    9   11 ar  
    13   11   12 1   
    14   11   13 ar  
    15   13   14 1   
    16   13   16 ar  
    17   14   15 1   
    18   16   17 1   
    19   16   18 ar  
    20   18   19 1   
    21   20   21 1   
    22   20   22 1   
    23   20   31 1   
    24   22   23 1   
    25   22   24 1   
    26   22   25 1   
    27   25   26 1   
    28   25   27 1   
    29   25   28 1   
    30   28   29 1   
    31   28   30 1   
    32   28   31 1   
    33   31   32 am  
    34   32   33 2   
    35   32   34 1   
    36   34   35 1   
    37   34   36 1   
    38   34   40 1   
    39   36   37 1   
    40   36   38 1   
    41   36   39 1   
    42   40   41 1   
    43   40   42 1   
    44   40   43 1   
    45   43   44 ar  
    46   43   48 ar  
    47   44   45 1   
    48   44   46 ar  
    49   46   47 1   
    50   46   52 ar  
    51   48   49 1   
    52   48   50 ar  
    53   50   51 1   
    54   50   52 ar  
    55   52   53 1   
@<TRIPOS>SUBSTRUCTURE
     1 Q16         1 TEMP              0 ****  ****    0 ROOT
