@<TRIPOS>MOLECULE
cc10.pdb.B
   49    51     1     0     0
SMALL
No Charge or Current Charge


@<TRIPOS>ATOM
      1 Cl         68.1840  -13.0050   95.6820 Cl        1 XXX     -0.011018
      2 C18        69.0330  -13.5940   94.3150 C.2       1 XXX     -0.076038
      3 C17        68.8150  -14.7570   93.6690 C.2       1 XXX     -0.077358
      4 H1         68.0360  -15.4590   93.9270 H         1 XXX      0.160814
      5 C16        69.7260  -14.9410   92.6200 C.2       1 XXX     -0.127504
      6 H2         69.7220  -15.8140   91.9850 H         1 XXX      0.154015
      7 S          70.3360  -12.6840   93.6570 S.3       1 XXX      0.004609
      8 C15        70.6180  -13.9200   92.4720 C.2       1 XXX     -0.074649
      9 C14        71.6990  -13.8430   91.4350 C.3       1 XXX      0.000832
     10 H3         71.6740  -12.8480   90.9920 H         1 XXX      0.140037
     11 H4         71.4870  -14.5880   90.6680 H         1 XXX      0.140037
     12 N1         73.0380  -14.0800   91.9370 N.am      1 XXX     -0.498804
     13 H5         73.5000  -13.3440   92.4510 H         1 XXX      0.315482
     14 C13        73.6850  -15.2330   91.7470 C.2       1 XXX      0.404146
     15 O1         73.2150  -16.2070   91.1470 O.2       1 XXX     -0.477347
     16 C12        75.0910  -15.2970   92.3270 C.3       1 XXX      0.204156
     17 H6         75.1510  -14.4780   93.0440 H         1 XXX      0.021062
     18 C11        76.1530  -15.1940   91.2230 C.3       1 XXX     -0.060595
     19 H7         76.5260  -14.1730   91.1400 H         1 XXX      0.049445
     20 H8         75.7450  -15.5110   90.2630 H         1 XXX      0.049445
     21 C10        77.2470  -16.1280   91.6720 C.3       1 XXX     -0.000290
     22 H9         77.9190  -15.6260   92.3680 H         1 XXX      0.038315
     23 H10        77.8160  -16.4920   90.8160 H         1 XXX      0.038315
     24 C9         76.5280  -17.2670   92.3560 C.3       1 XXX     -0.002809
     25 H11        77.1490  -17.7120   93.1330 H         1 XXX      0.079169
     26 H12        76.2380  -18.0350   91.6390 H         1 XXX      0.079169
     27 N          75.3470  -16.6090   92.9340 N.am      1 XXX     -0.285875
     28 C8         74.5230  -17.0470   93.9010 C.2       1 XXX      0.485970
     29 O          73.5950  -16.3640   94.2960 O.2       1 XXX     -0.530647
     30 C7         74.7600  -18.4420   94.5270 C.3       1 XXX      0.073757
     31 H13        75.5050  -18.9900   93.9500 H         1 XXX      0.073199
     32 N2         73.4470  -19.1210   94.5320 N.4       1 XXX     -0.170703
     33 H16        73.1090  -19.2060   93.5840 H         1 XXX      0.259978
     34 H14        72.7900  -18.5800   95.0770 H         1 XXX      0.259978
     35 H15        73.5450  -20.0400   94.9390 H         1 XXX      0.259978
     36 C6         75.3100  -18.3470   95.9660 C.3       1 XXX     -0.272092
     37 H17        75.3130  -19.3490   96.3960 H         1 XXX      0.138170
     38 H18        74.6440  -17.7060   96.5430 H         1 XXX      0.138170
     39 C3         76.7060  -17.7870   96.0670 C.ar      1 XXX      0.067989
     40 C2         76.9440  -16.5890   96.7230 C.ar      1 XXX     -0.139621
     41 H19        76.1240  -16.0630   97.1890 H         1 XXX      0.129856
     42 C1         78.2240  -16.0600   96.7870 C.ar      1 XXX     -0.182592
     43 H20        78.3950  -15.1260   97.3010 H         1 XXX      0.171453
     44 C4         77.7810  -18.4460   95.4840 C.ar      1 XXX     -0.139621
     45 H21        77.6180  -19.3830   94.9720 H         1 XXX      0.129856
     46 C5         79.0590  -17.9180   95.5510 C.ar      1 XXX     -0.182592
     47 H22        79.8840  -18.4450   95.0960 H         1 XXX      0.171453
     48 C          79.2810  -16.7230   96.1960 C.ar      1 XXX     -0.081468
     49 H23        80.2760  -16.3060   96.2400 H         1 XXX      0.152768
@<TRIPOS>BOND
     1    1    2 1   
     2    2    3 2   
     3    2    7 1   
     4    3    4 1   
     5    3    5 1   
     6    5    6 1   
     7    5    8 2   
     8    7    8 1   
     9    8    9 1   
    10    9   10 1   
    11    9   11 1   
    12    9   12 1   
    13   12   13 1   
    14   12   14 am  
    15   14   15 2   
    16   14   16 1   
    17   16   17 1   
    18   16   18 1   
    19   16   27 1   
    20   18   19 1   
    21   18   20 1   
    22   18   21 1   
    23   21   22 1   
    24   21   23 1   
    25   21   24 1   
    26   24   25 1   
    27   24   26 1   
    28   24   27 1   
    29   27   28 am  
    30   28   29 2   
    31   28   30 1   
    32   30   31 1   
    33   30   32 1   
    34   30   36 1   
    35   32   33 1   
    36   32   34 1   
    37   32   35 1   
    38   36   37 1   
    39   36   38 1   
    40   36   39 1   
    41   39   40 ar  
    42   39   44 ar  
    43   40   41 1   
    44   40   42 ar  
    45   42   43 1   
    46   42   48 ar  
    47   44   45 1   
    48   44   46 ar  
    49   46   47 1   
    50   46   48 ar  
    51   48   49 1   
@<TRIPOS>SUBSTRUCTURE
     1 XXX         1 TEMP              0 ****  ****    0 ROOT
