@<TRIPOS>MOLECULE
cc11.pdb.A
   53    55     1     0     0
SMALL
No Charge or Current Charge


@<TRIPOS>ATOM
      1 O1         73.5630  -16.3340   91.0660 O.2       1 Q13     -0.501346
      2 C13        74.0270  -15.4310   91.7610 C.2       1 Q13      0.489495
      3 N1         73.3710  -14.3030   92.0350 N.am      1 Q13     -0.531130
      4 H1         73.7970  -13.6320   92.6590 H         1 Q13      0.343768
      5 C14        72.0650  -14.0020   91.4690 C.3       1 Q13     -0.041576
      6 H2         71.9870  -14.5080   90.5070 H         1 Q13      0.140514
      7 H3         72.0010  -12.9240   91.3190 H         1 Q13      0.140514
      8 C15        70.8950  -14.4280   92.3190 C.ar      1 Q13     -0.039880
      9 C20        70.8670  -15.6800   92.9180 C.ar      1 Q13     -0.177812
     10 H4         71.7150  -16.3410   92.8170 H         1 Q13      0.164194
     11 C19        69.7590  -16.0890   93.6460 C.ar      1 Q13      0.232421
     12 O2         69.7620  -17.2980   94.2770 O.3       1 Q13     -0.562137
     13 H5         68.9690  -17.4940   94.7820 H         1 Q13      0.415953
     14 C18        68.6610  -15.2580   93.7690 C.ar      1 Q13     -0.141412
     15 H6         67.7920  -15.5810   94.3230 H         1 Q13      0.147097
     16 C17        68.6870  -14.0110   93.1770 C.ar      1 Q13     -0.203758
     17 H7         67.8340  -13.3550   93.2690 H         1 Q13      0.180640
     18 C16        69.7990  -13.5970   92.4670 C.ar      1 Q13     -0.117319
     19 H8         69.8120  -12.6130   92.0220 H         1 Q13      0.133453
     20 C12        75.4160  -15.5610   92.3780 C.3       1 Q13      0.028786
     21 H9         75.4990  -14.7460   93.0970 H         1 Q13      0.070312
     22 C11        76.5070  -15.5150   91.3000 C.3       1 Q13     -0.071888
     23 H10        76.9330  -14.5140   91.2250 H         1 Q13      0.071071
     24 H11        76.1050  -15.8120   90.3310 H         1 Q13      0.071071
     25 C10        77.5480  -16.5060   91.7730 C.3       1 Q13     -0.037392
     26 H12        78.2210  -16.0450   92.4960 H         1 Q13      0.053292
     27 H13        78.1260  -16.8910   90.9330 H         1 Q13      0.053292
     28 C9         76.7410  -17.6070   92.4170 C.3       1 Q13     -0.017177
     29 H14        77.3130  -18.1070   93.1980 H         1 Q13      0.079160
     30 H15        76.4180  -18.3400   91.6780 H         1 Q13      0.079160
     31 N          75.5910  -16.8850   92.9830 N.am      1 Q13     -0.271354
     32 C8         74.7390  -17.2900   93.9400 C.2       1 Q13      0.574353
     33 O          73.8260  -16.5780   94.3210 O.2       1 Q13     -0.540049
     34 C7         74.9180  -18.6940   94.5590 C.3       1 Q13     -0.033726
     35 H16        75.6300  -19.2760   93.9730 H         1 Q13      0.072212
     36 N2         73.5840  -19.3150   94.5750 N.4       1 Q13     -0.093070
     37 H19        73.2340  -19.3850   93.6300 H         1 Q13      0.230225
     38 H17        72.9550  -18.7480   95.1260 H         1 Q13      0.230225
     39 H18        73.6470  -20.2380   94.9800 H         1 Q13      0.230225
     40 C6         75.4820  -18.6190   95.9860 C.3       1 Q13     -0.082884
     41 H20        75.5050  -19.6280   96.3970 H         1 Q13      0.081132
     42 H21        74.8150  -17.9980   96.5840 H         1 Q13      0.081132
     43 C3         76.8720  -18.0410   96.0750 C.ar      1 Q13      0.024837
     44 C2         77.0890  -16.8100   96.6720 C.ar      1 Q13     -0.118807
     45 H22        76.2560  -16.2690   97.0970 H         1 Q13      0.125341
     46 C1         78.3590  -16.2650   96.7310 C.ar      1 Q13     -0.191771
     47 H23        78.5100  -15.3020   97.1950 H         1 Q13      0.166833
     48 C4         77.9610  -18.7240   95.5530 C.ar      1 Q13     -0.118807
     49 H24        77.8150  -19.6900   95.0930 H         1 Q13      0.125341
     50 C5         79.2330  -18.1800   95.6150 C.ar      1 Q13     -0.191771
     51 H25        80.0710  -18.7230   95.2040 H         1 Q13      0.166833
     52 C          79.4320  -16.9480   96.1990 C.ar      1 Q13     -0.064376
     53 H26        80.4230  -16.5200   96.2400 H         1 Q13      0.146559
@<TRIPOS>BOND
     1    1    2 2   
     2    2    3 am  
     3    2   20 1   
     4    3    4 1   
     5    3    5 1   
     6    5    6 1   
     7    5    7 1   
     8    5    8 1   
     9    8    9 ar  
    10    8   18 ar  
    11    9   10 1   
    12    9   11 ar  
    13   11   12 1   
    14   11   14 ar  
    15   12   13 1   
    16   14   15 1   
    17   14   16 ar  
    18   16   17 1   
    19   16   18 ar  
    20   18   19 1   
    21   20   21 1   
    22   20   22 1   
    23   20   31 1   
    24   22   23 1   
    25   22   24 1   
    26   22   25 1   
    27   25   26 1   
    28   25   27 1   
    29   25   28 1   
    30   28   29 1   
    31   28   30 1   
    32   28   31 1   
    33   31   32 am  
    34   32   33 2   
    35   32   34 1   
    36   34   35 1   
    37   34   36 1   
    38   34   40 1   
    39   36   37 1   
    40   36   38 1   
    41   36   39 1   
    42   40   41 1   
    43   40   42 1   
    44   40   43 1   
    45   43   44 ar  
    46   43   48 ar  
    47   44   45 1   
    48   44   46 ar  
    49   46   47 1   
    50   46   52 ar  
    51   48   49 1   
    52   48   50 ar  
    53   50   51 1   
    54   50   52 ar  
    55   52   53 1   
@<TRIPOS>SUBSTRUCTURE
     1 Q13         1 TEMP              0 ****  ****    0 ROOT
