@<TRIPOS>MOLECULE
*****
 41 42 0 0 0
SMALL
GASTEIGER

@<TRIPOS>ATOM
      1 C           6.2987    1.4795   -2.0546 C.3     1  UNL1        0.0030
      2 N           5.9352    0.5828   -0.9613 N.am    1  UNL1        0.3030
      3 C           6.3518   -0.8103   -1.0835 C.3     1  UNL1        0.0030
      4 C           5.1807    1.1078    0.0776 C.2     1  UNL1        0.2641
      5 O           4.7387    2.2601    0.0615 O.2     1  UNL1        0.2694
      6 C           4.7755    0.2171    1.2724 C.3     1  UNL1        0.0643
      7 H           4.9240   -0.8361    1.0309 H       1  UNL1        0.0958
      8 N           3.2590    0.3658    1.4210 N.4     1  UNL1        0.2280
      9 H           2.8861   -0.1750    2.2124 H       1  UNL1        0.2002
     10 H           3.0409    1.3646    1.5625 H       1  UNL1        0.2002
     11 H           2.7740    0.0850    0.5609 H       1  UNL1        0.2002
     12 C           5.4462    0.6163    2.6451 C.3     1  UNL1        0.0606
     13 C           4.9066   -0.3427    3.7272 C.ar    1  UNL1        0.0341
     14 C           5.0375   -1.7398    3.5767 C.ar    1  UNL1        0.0578
     15 C           4.5086   -2.6218    4.5163 C.ar    1  UNL1        0.0615
     16 C           3.8424   -2.1266    5.6302 C.ar    1  UNL1        0.0617
     17 C           3.7271   -0.7493    5.8150 C.ar    1  UNL1        0.0615
     18 C           4.2543    0.1417    4.8719 C.ar    1  UNL1        0.0578
     19 C           6.9737    0.6911    2.5649 C.ar    1  UNL1        0.0341
     20 C           7.5816    1.6621    1.7478 C.ar    1  UNL1        0.0578
     21 C           8.9477    1.6188    1.4661 C.ar    1  UNL1        0.0615
     22 C           9.7510    0.6608    2.0704 C.ar    1  UNL1        0.0617
     23 C           9.1966   -0.2146    2.9953 C.ar    1  UNL1        0.0615
     24 C           7.8242   -0.1918    3.2480 C.ar    1  UNL1        0.0578
     25 H           6.8739    0.9603   -2.8267 H       1  UNL1        0.0428
     26 H           6.9046    2.2957   -1.6487 H       1  UNL1        0.0428
     27 H           5.3918    1.8975   -2.5004 H       1  UNL1        0.0428
     28 H           7.1072   -0.9302   -1.8658 H       1  UNL1        0.0428
     29 H           5.4737   -1.4119   -1.3377 H       1  UNL1        0.0428
     30 H           6.7712   -1.1606   -0.1378 H       1  UNL1        0.0428
     31 H           5.1045    1.6299    2.9073 H       1  UNL1        0.0458
     32 H           5.6043   -2.1653    2.7498 H       1  UNL1        0.0621
     33 H           4.6402   -3.6952    4.3933 H       1  UNL1        0.0618
     34 H           3.4384   -2.8154    6.3702 H       1  UNL1        0.0618
     35 H           3.2391   -0.3738    6.7137 H       1  UNL1        0.0618
     36 H           4.1601    1.2097    5.0646 H       1  UNL1        0.0621
     37 H           7.0065    2.4658    1.2901 H       1  UNL1        0.0621
     38 H           9.3839    2.3345    0.7728 H       1  UNL1        0.0618
     39 H          10.8136    0.6167    1.8470 H       1  UNL1        0.0618
     40 H           9.8306   -0.9250    3.5210 H       1  UNL1        0.0618
     41 H           7.4555   -0.8880    3.9971 H       1  UNL1        0.0621
@<TRIPOS>BOND
     1     1     2    1
     2     2     3    1
     3     2     4   am
     4     4     5    2
     5     6     8    1
     6     8     9    1
     7     8    10    1
     8     8    11    1
     9     6    12    1
    10    12    13    1
    11    13    14   ar
    12    14    15   ar
    13    15    16   ar
    14    16    17   ar
    15    17    18   ar
    16    13    18   ar
    17    12    19    1
    18    19    20   ar
    19    20    21   ar
    20    21    22   ar
    21    22    23   ar
    22    23    24   ar
    23    19    24   ar
    24     6     7    1
    25     6     4    1
    26     1    25    1
    27     1    26    1
    28     1    27    1
    29     3    28    1
    30     3    29    1
    31     3    30    1
    32    12    31    1
    33    14    32    1
    34    15    33    1
    35    16    34    1
    36    17    35    1
    37    18    36    1
    38    20    37    1
    39    21    38    1
    40    22    39    1
    41    23    40    1
    42    24    41    1
