@<TRIPOS>MOLECULE
MOL
   42    43     1     0     0
SMALL
No Charge or Current Charge


@<TRIPOS>ATOM
      1 C1           0.4540     1.5940    -0.5880 C.2        1 MOL       0.000000
      2 C2           3.8290    -1.5470     0.1600 C.2        1 MOL       0.000000
      3 C3          -4.3950    -1.6220     0.0710 C.3        1 MOL       0.000000
      4 C4          -3.2550    -2.4240    -0.5720 C.3        1 MOL       0.000000
      5 C5          -4.0750    -0.1200     0.0840 C.3        1 MOL       0.000000
      6 C6          -1.9090    -2.1400     0.1120 C.3        1 MOL       0.000000
      7 C7          -2.7290     0.1670     0.7680 C.3        1 MOL       0.000000
      8 C8          -1.5630    -0.6330     0.1380 C.3        1 MOL       0.000000
      9 C9          -0.4060     3.8620    -0.5600 C.3        1 MOL       0.000000
     10 C10          0.4350     2.9040     1.5480 C.3        1 MOL       0.000000
     11 C11          2.4710    -1.6240    -0.5740 C.3        1 MOL       0.000000
     12 C12         -0.2690    -0.3330     0.8600 C.3        1 MOL       0.000000
     13 C13          0.9490     0.3560     0.1880 ANY        1 MOL       0.000000
     14 N1           0.2700     2.7550     0.1090 N.am       1 MOL       0.000000
     15 N2           1.9360    -0.2990    -0.9110 N.3        1 MOL       0.000000
     16 O1           4.3190    -2.4980     0.7200 O.2        1 MOL       0.000000
     17 O2           0.1670     1.4800    -1.7820 O.2        1 MOL       0.000000
     18 O3           4.4100    -0.3410     0.1130 O.3        1 MOL       0.000000
     19 H1          -5.3380    -1.8050    -0.4600 H          1 MOL       0.000000
     20 H2          -4.5450    -1.9700     1.1040 H          1 MOL       0.000000
     21 H3          -3.4750    -3.4990    -0.5360 H          1 MOL       0.000000
     22 H4          -3.1820    -2.1570    -1.6370 H          1 MOL       0.000000
     23 H5          -4.0380     0.2500    -0.9510 H          1 MOL       0.000000
     24 H6          -4.8770     0.4370     0.5860 H          1 MOL       0.000000
     25 H7          -1.9400    -2.5130     1.1470 H          1 MOL       0.000000
     26 H8          -1.1030    -2.6920    -0.3900 H          1 MOL       0.000000
     27 H9          -2.5010     1.2390     0.7240 H          1 MOL       0.000000
     28 H10         -2.8010    -0.0930     1.8360 H          1 MOL       0.000000
     29 H11         -1.4590    -0.2930    -0.9020 H          1 MOL       0.000000
     30 H12         -1.4350     3.9750    -0.1880 H          1 MOL       0.000000
     31 H13         -0.4330     3.6600    -1.6290 H          1 MOL       0.000000
     32 H14          0.1360     4.7950    -0.3710 H          1 MOL       0.000000
     33 H15          0.7930     3.9170     1.7580 H          1 MOL       0.000000
     34 H16          1.1710     2.2060     1.9450 H          1 MOL       0.000000
     35 H17         -0.5130     2.7500     2.0800 H          1 MOL       0.000000
     36 H18          1.7990    -2.2270     0.0580 H          1 MOL       0.000000
     37 H19          2.6250    -2.1980    -1.4940 H          1 MOL       0.000000
     38 H20         -0.0530    -0.7200     1.8490 H          1 MOL       0.000000
     39 H21          0.6480    -0.6190     0.1990 H          1 MOL       0.000000
     40 H22          1.5980     0.5810     0.9410 H          1 MOL       0.000000
     41 H23          3.6680     0.2710    -0.4970 H          1 MOL       0.000000
     42 H24          1.4250    -0.2690    -1.7930 H          1 MOL       0.000000
@<TRIPOS>BOND
     1     1    13 1   
     2     1    14 1   
     3     1    17 1   
     4     2    11 1   
     5     2    16 1   
     6     2    18 1   
     7     3     4 1   
     8     3     5 1   
     9     3    19 1   
    10     3    20 1   
    11     4     6 1   
    12     4    21 1   
    13     4    22 1   
    14     5     7 1   
    15     5    23 1   
    16     5    24 1   
    17     6     8 1   
    18     6    25 1   
    19     6    26 1   
    20     7     8 1   
    21     7    27 1   
    22     7    28 1   
    23     8    12 1   
    24     8    29 1   
    25     9    14 1   
    26     9    30 1   
    27     9    31 1   
    28     9    32 1   
    29    10    14 1   
    30    10    33 1   
    31    10    34 1   
    32    10    35 1   
    33    11    15 1   
    34    11    36 1   
    35    11    37 1   
    36    12    13 1   
    37    12    38 1   
    38    12    39 1   
    39    13    15 1   
    40    13    39 1   
    41    13    40 1   
    42    15    42 1   
    43    18    41 1   
@<TRIPOS>SUBSTRUCTURE
     1 MOL         1 TEMP              0 ****  ****    0 ROOT
