@<TRIPOS>MOLECULE
MOL
   33    32     1     0     0
SMALL
No Charge or Current Charge


@<TRIPOS>ATOM
 1  C1  2.353000  -1.171000  0.155000  C.2  1  MOL  0.596329 
 2  C2  0.262000  1.022000  -0.639000  C.2  1  MOL  0.636107 
 3  C3  4.816000  -1.043000  -0.012000  C.3  1  MOL  -0.006198 
 4  C4  0.830000  3.338000  -0.233000  C.3  1  MOL  -0.071473 
 5  C5  0.635000  1.792000  1.705000  C.3  1  MOL  -0.089282 
 6  C6  -3.186000  -1.948000  0.867000  C.3  1  MOL  -0.412669 
 7  C7  1.056000  -1.370000  -0.628000  C.3  1  MOL  -0.331483 
 8  C8  -0.051000  -0.412000  -0.152000  C.3  1  MOL  -0.166729 
 9  N1  3.491000  -1.185000  -0.590000  N.am  1  MOL  -0.470020 
 10  N2  -1.323000  -0.842000  -0.766000  N.3  1  MOL  -0.497998 
 11  N3  0.645000  1.973000  0.250000  N.am  1  MOL  -0.344286 
 12  O1  2.350000  -1.040000  1.378000  O.2  1  MOL  -0.524049 
 13  O2  0.160000  1.224000  -1.854000  O.2  1  MOL  -0.560519 
 14  O3  -3.750000  -0.159000  -1.017000  O.2  1  MOL  -0.518639 
 15  O4  -2.488000  0.589000  1.077000  O.2  1  MOL  -0.504040 
 16  S1  -2.760000  -0.409000  0.033000  S.o2  1  MOL  0.947437 
 17  H1  5.449000  -1.902000  -0.263000  H  1  MOL  0.068972 
 18  H2  4.695000  -0.990000  1.071000  H  1  MOL  0.058547 
 19  H3  5.306000  -0.127000  -0.364000  H  1  MOL  0.062004 
 20  H4  0.031000  3.991000  0.143000  H  1  MOL  0.087465 
 21  H5  0.802000  3.329000  -1.322000  H  1  MOL  0.084069 
 22  H6  1.794000  3.730000  0.111000  H  1  MOL  0.088028 
 23  H7  1.115000  0.853000  1.984000  H  1  MOL  0.094118 
 24  H8  -0.385000  1.829000  2.102000  H  1  MOL  0.067267 
 25  H9  1.217000  2.606000  2.147000  H  1  MOL  0.084095 
 26  H10  -4.106000  -1.764000  1.427000  H  1  MOL  0.187843 
 27  H11  -3.338000  -2.723000  0.115000  H  1  MOL  0.155917 
 28  H12  -2.378000  -2.219000  1.550000  H  1  MOL  0.144151 
 29  H13  0.715000  -2.397000  -0.455000  H  1  MOL  0.146977 
 30  H14  1.200000  -1.241000  -1.706000  H  1  MOL  0.146977 
 31  H15  -0.142000  -0.490000  0.930000  H  1  MOL  0.207932 
 32  H16  3.407000  -1.255000  -1.594000  H  1  MOL  0.286695 
 33  H17  -1.384000  -0.466000  -1.717000  H  1  MOL  0.346457 
@<TRIPOS>BOND
     1     1     7 1   
     2     1     9 am  
     3     1    12 2   
     4     2     8 1   
     5     2    11 am  
     6     2    13 2   
     7     3     9 1   
     8     3    17 1   
     9     3    18 1   
    10     3    19 1   
    11     4    11 1   
    12     4    20 1   
    13     4    21 1   
    14     4    22 1   
    15     5    11 1   
    16     5    23 1   
    17     5    24 1   
    18     5    25 1   
    19     6    16 1   
    20     6    26 1   
    21     6    27 1   
    22     6    28 1   
    23     7     8 1   
    24     7    29 1   
    25     7    30 1   
    26     8    10 1   
    27     8    31 1   
    28     9    32 1   
    29    10    16 1   
    30    10    33 1   
    31    14    16 2   
    32    15    16 2   
@<TRIPOS>SUBSTRUCTURE
     1 MOL         1 TEMP              0 ****  ****    0 ROOT
