@<TRIPOS>MOLECULE
*****
 25 25 0 0 0
SMALL
GASTEIGER

@<TRIPOS>ATOM
      1 C           7.3279   -0.8287   -1.9911 C.3     1  UNL1        0.0122
      2 C           6.8174   -1.1317   -0.6126 C.2     1  UNL1        0.2102
      3 O           7.5625   -1.5120    0.2887 O.2     1  UNL1        0.2761
      4 N           5.4590   -0.9543   -0.4625 N.am    1  UNL1        0.3112
      5 C           4.7646   -1.0416    0.8109 C.3     1  UNL1        0.0438
      6 C           5.0988   -2.3017    1.5672 C.ar    1  UNL1        0.0514
      7 C           6.1459   -2.2615    2.4957 C.ar    1  UNL1        0.1771
      8 N           6.6413   -3.3935    3.0397 N.ar    1  UNL1        0.2061
      9 C           7.8717   -3.3442    3.8502 C.3     1  UNL1        0.1404
     10 C           6.0805   -4.5910    2.7709 C.ar    1  UNL1        0.1724
     11 C           5.0108   -4.6894    1.8935 C.ar    1  UNL1        0.0207
     12 C           4.5384   -3.5421    1.2672 C.ar    1  UNL1        0.0568
     13 CL          3.3040   -3.7216    0.0786 Cl      1  UNL1        0.0828
     14 H           8.3855   -1.1028   -2.0495 H       1  UNL1        0.0322
     15 H           7.2278    0.2414   -2.1882 H       1  UNL1        0.0322
     16 H           6.7747   -1.4050   -2.7369 H       1  UNL1        0.0322
     17 H           4.9487   -0.5455   -1.2389 H       1  UNL1        0.1490
     18 H           3.6888   -0.9799    0.6115 H       1  UNL1        0.0514
     19 H           5.0177   -0.1517    1.4000 H       1  UNL1        0.0514
     20 H           6.6651   -1.3337    2.7277 H       1  UNL1        0.1380
     21 H           8.2176   -2.3133    3.9557 H       1  UNL1        0.0993
     22 H           8.6317   -3.9380    3.3336 H       1  UNL1        0.0993
     23 H           7.6444   -3.7678    4.8312 H       1  UNL1        0.0993
     24 H           6.5194   -5.4656    3.2421 H       1  UNL1        0.1376
     25 H           4.5833   -5.6627    1.6649 H       1  UNL1        0.0691
@<TRIPOS>BOND
     1     1     2    1
     2     2     3    2
     3     2     4   am
     4     4     5    1
     5     5     6    1
     6     6     7   ar
     7     7     8   ar
     8     8     9    1
     9     8    10   ar
    10    10    11   ar
    11    11    12   ar
    12     6    12   ar
    13    12    13    1
    14     1    14    1
    15     1    15    1
    16     1    16    1
    17     4    17    1
    18     5    18    1
    19     5    19    1
    20     7    20    1
    21     9    21    1
    22     9    22    1
    23     9    23    1
    24    10    24    1
    25    11    25    1
