@<TRIPOS>MOLECULE
MOL
   23    23     1     0     0
SMALL
No Charge or Current Charge


@<TRIPOS>ATOM
 1  C1  -0.588000  0.733000  -0.585000  C.ar  1  MOL  -0.033510 
 2  C2  -1.849000  1.225000  -0.301000  C.ar  1  MOL  -0.452928 
 3  C3  -1.365000  -1.426000  0.055000  C.ar  1  MOL  0.182360 
 4  C4  -0.315000  -0.636000  -0.410000  C.ar  1  MOL  -0.013229 
 5  C5  -2.834000  0.329000  0.169000  C.ar  1  MOL  0.723815 
 6  C6  2.882000  0.268000  0.060000  C.2  1  MOL  0.510929 
 7  C7  3.848000  0.589000  1.191000  C.3  1  MOL  -0.313908 
 8  C8  1.050000  -1.218000  -0.700000  C.3  1  MOL  -0.215557 
 9  N1  -2.592000  -0.977000  0.347000  N.ar  1  MOL  -0.619570 
 10  N2  -4.128000  0.753000  0.422000  N.3  1  MOL  -0.913163 
 11  N3  2.085000  -0.826000  0.259000  N.am  1  MOL  -0.353167 
 12  O1  2.839000  0.943000  -0.964000  O.2  1  MOL  -0.514977 
 13  H1  0.197000  1.392000  -0.948000  H  1  MOL  0.158345 
 14  H2  -2.086000  2.276000  -0.444000  H  1  MOL  0.191188 
 15  H3  -1.213000  -2.497000  0.205000  H  1  MOL  0.098431 
 16  H4  4.861000  0.641000  0.781000  H  1  MOL  0.111818 
 17  H5  3.608000  1.579000  1.592000  H  1  MOL  0.116842 
 18  H6  3.832000  -0.139000  2.009000  H  1  MOL  0.089295 
 19  H7  0.997000  -2.312000  -0.713000  H  1  MOL  0.121538 
 20  H8  1.411000  -0.887000  -1.678000  H  1  MOL  0.121538 
 21  H9  -4.249000  1.719000  0.693000  H  1  MOL  0.373480 
 22  H10  -4.671000  0.096000  0.968000  H  1  MOL  0.373480 
 23  H11  2.060000  -1.246000  1.177000  H  1  MOL  0.256949 
@<TRIPOS>BOND
     1     1     2 ar  
     2     1     4 ar  
     3     1    13 1   
     4     2     5 ar  
     5     2    14 1   
     6     3     4 ar  
     7     3     9 ar  
     8     3    15 1   
     9     4     8 1   
    10     5     9 ar  
    11     5    10 1   
    12     6     7 1   
    13     6    11 am  
    14     6    12 2   
    15     7    16 1   
    16     7    17 1   
    17     7    18 1   
    18     8    11 1   
    19     8    19 1   
    20     8    20 1   
    21    10    21 1   
    22    10    22 1   
    23    11    23 1   
@<TRIPOS>SUBSTRUCTURE
     1 MOL         1 TEMP              0 ****  ****    0 ROOT
