@<TRIPOS>MOLECULE
MOL
   23    23     1     0     0
SMALL
No Charge or Current Charge


@<TRIPOS>ATOM
      1 C1          -0.5880     0.7330    -0.5850 C.ar       1 MOL       0.000000
      2 C2          -1.8490     1.2250    -0.3010 C.ar       1 MOL       0.000000
      3 C3          -1.3650    -1.4260     0.0550 C.ar       1 MOL       0.000000
      4 C4          -0.3150    -0.6360    -0.4100 C.ar       1 MOL       0.000000
      5 C5          -2.8340     0.3290     0.1690 C.ar       1 MOL       0.000000
      6 C6           2.8820     0.2680     0.0600 C.2        1 MOL       0.000000
      7 C7           3.8480     0.5890     1.1910 C.3        1 MOL       0.000000
      8 C8           1.0500    -1.2180    -0.7000 C.3        1 MOL       0.000000
      9 N1          -2.5920    -0.9770     0.3470 N.ar       1 MOL       0.000000
     10 N2          -4.1280     0.7530     0.4220 N.3        1 MOL       0.000000
     11 N3           2.0850    -0.8260     0.2590 N.am       1 MOL       0.000000
     12 O1           2.8390     0.9430    -0.9640 O.2        1 MOL       0.000000
     13 H1           0.1970     1.3920    -0.9480 H          1 MOL       0.000000
     14 H2          -2.0860     2.2760    -0.4440 H          1 MOL       0.000000
     15 H3          -1.2130    -2.4970     0.2050 H          1 MOL       0.000000
     16 H4           4.8610     0.6410     0.7810 H          1 MOL       0.000000
     17 H5           3.6080     1.5790     1.5920 H          1 MOL       0.000000
     18 H6           3.8320    -0.1390     2.0090 H          1 MOL       0.000000
     19 H7           0.9970    -2.3120    -0.7130 H          1 MOL       0.000000
     20 H8           1.4110    -0.8870    -1.6780 H          1 MOL       0.000000
     21 H9          -4.2490     1.7190     0.6930 H          1 MOL       0.000000
     22 H10         -4.6710     0.0960     0.9680 H          1 MOL       0.000000
     23 H11          2.0600    -1.2460     1.1770 H          1 MOL       0.000000
@<TRIPOS>BOND
     1     1     2 ar  
     2     1     4 ar  
     3     1    13 1   
     4     2     5 ar  
     5     2    14 1   
     6     3     4 ar  
     7     3     9 ar  
     8     3    15 1   
     9     4     8 1   
    10     5     9 ar  
    11     5    10 1   
    12     6     7 1   
    13     6    11 am  
    14     6    12 2   
    15     7    16 1   
    16     7    17 1   
    17     7    18 1   
    18     8    11 1   
    19     8    19 1   
    20     8    20 1   
    21    10    21 1   
    22    10    22 1   
    23    11    23 1   
@<TRIPOS>SUBSTRUCTURE
     1 MOL         1 TEMP              0 ****  ****    0 ROOT
