@<TRIPOS>MOLECULE
*****
 39 39 0 0 0
SMALL
GASTEIGER

@<TRIPOS>ATOM
      1 C           5.2863   -3.5420    0.6491 C.3     1  UNL1        0.0030
      2 N           4.5763   -2.3058    0.9400 N.am    1  UNL1        0.3030
      3 C           3.1569   -2.4529    1.2619 C.3     1  UNL1        0.0030
      4 C           5.2926   -1.1182    0.8307 C.2     1  UNL1        0.2636
      5 O           6.4851   -1.1155    0.4877 O.2     1  UNL1        0.2694
      6 C           4.6400    0.2597    1.1358 C.3     1  UNL1        0.0583
      7 H           3.5601    0.1909    1.2249 H       1  UNL1        0.0952
      8 N           4.9457    1.2597   -0.0024 N.4     1  UNL1        0.2401
      9 H           4.4875    2.1520    0.2028 H       1  UNL1        0.2025
     10 H           5.9600    1.3916   -0.0632 H       1  UNL1        0.2025
     11 C           4.4284    0.9049   -1.3861 C.3     1  UNL1        0.0076
     12 C           2.8962    0.7555   -1.4936 C.2     1  UNL1        0.0863
     13 O           2.4433   -0.2591   -0.9120 O.co2   1  UNL1        0.5444
     14 O           2.3062    1.7484   -2.0011 O.co2   1  UNL1        0.5444
     15 C           5.2766    0.9296    2.4094 C.3     1  UNL1        0.0107
     16 C           4.5999    2.2680    2.7910 C.3     1  UNL1        0.0446
     17 C           3.1553    2.0551    3.2317 C.3     1  UNL1        0.0526
     18 C           3.0860    1.1175    4.4329 C.3     1  UNL1        0.0530
     19 C           3.8910   -0.1681    4.2530 C.3     1  UNL1        0.0526
     20 C           5.2825    0.0489    3.6689 C.3     1  UNL1        0.0446
     21 H           4.6604   -4.4183    0.8450 H       1  UNL1        0.0428
     22 H           6.1815   -3.6021    1.2737 H       1  UNL1        0.0428
     23 H           5.5798   -3.5401   -0.4051 H       1  UNL1        0.0428
     24 H           2.7701   -3.4000    0.8692 H       1  UNL1        0.0428
     25 H           2.5497   -1.6505    0.8617 H       1  UNL1        0.0428
     26 H           3.0460   -2.4709    2.3464 H       1  UNL1        0.0428
     27 H           4.9553    0.0060   -1.7153 H       1  UNL1        0.0878
     28 H           4.7530    1.7382   -2.0214 H       1  UNL1        0.0878
     29 H           6.3303    1.1503    2.1813 H       1  UNL1        0.0361
     30 H           4.6419    2.9982    1.9780 H       1  UNL1        0.0270
     31 H           5.1566    2.7290    3.6190 H       1  UNL1        0.0270
     32 H           2.5580    1.6525    2.4063 H       1  UNL1        0.0265
     33 H           2.7010    3.0177    3.4913 H       1  UNL1        0.0265
     34 H           2.0394    0.8615    4.6346 H       1  UNL1        0.0265
     35 H           3.4572    1.6498    5.3163 H       1  UNL1        0.0265
     36 H           3.3302   -0.8389    3.6029 H       1  UNL1        0.0265
     37 H           3.9825   -0.6759    5.2203 H       1  UNL1        0.0265
     38 H           5.7668   -0.9137    3.4729 H       1  UNL1        0.0270
     39 H           5.9035    0.5413    4.4314 H       1  UNL1        0.0270
@<TRIPOS>BOND
     1     1     2    1
     2     2     3    1
     3     2     4   am
     4     4     5    2
     5     6     8    1
     6     8     9    1
     7     8    10    1
     8     8    11    1
     9    11    12    1
    10    12    13   ar
    11    12    14   ar
    12     6    15    1
    13    15    16    1
    14    16    17    1
    15    17    18    1
    16    18    19    1
    17    19    20    1
    18    15    20    1
    19     6     7    1
    20     6     4    1
    21     1    21    1
    22     1    22    1
    23     1    23    1
    24     3    24    1
    25     3    25    1
    26     3    26    1
    27    11    27    1
    28    11    28    1
    29    15    29    1
    30    16    30    1
    31    16    31    1
    32    17    32    1
    33    17    33    1
    34    18    34    1
    35    18    35    1
    36    19    36    1
    37    19    37    1
    38    20    38    1
    39    20    39    1
