@<TRIPOS>MOLECULE
*****
 19 18 0 0 0
SMALL
GASTEIGER

@<TRIPOS>ATOM
      1 C           1.1752   -2.3208   -1.6084 C.3     1  UNL1        0.0001
      2 N           2.5942   -2.2471   -1.4004 N.am    1  UNL1        0.3171
      3 C           3.1797   -1.1719   -0.7662 C.2     1  UNL1        0.2300
      4 O           2.5373   -0.3081   -0.1733 O.2     1  UNL1        0.2741
      5 C           4.7190   -1.1405   -0.8266 C.3     1  UNL1        0.0881
      6 N           5.3340   -2.2581   -1.5401 N.am    1  UNL1        0.3069
      7 C           5.3011   -2.3390   -2.9114 C.2     1  UNL1        0.2103
      8 C           5.9891   -3.5433   -3.4872 C.3     1  UNL1        0.0122
      9 O           4.6554   -1.5634   -3.6095 O.2     1  UNL1        0.2761
     10 H           0.9709   -3.1771   -2.2564 H       1  UNL1        0.0426
     11 H           0.8245   -1.4021   -2.0857 H       1  UNL1        0.0426
     12 H           0.6806   -2.4530   -0.6443 H       1  UNL1        0.0426
     13 H           3.1816   -2.7329   -2.0627 H       1  UNL1        0.1484
     14 H           5.0889   -1.1800    0.2036 H       1  UNL1        0.0558
     15 H           5.0369   -0.2016   -1.2916 H       1  UNL1        0.0558
     16 H           5.9882   -2.8342   -1.0266 H       1  UNL1        0.1492
     17 H           6.5556   -4.0887   -2.7285 H       1  UNL1        0.0322
     18 H           6.6690   -3.2238   -4.2798 H       1  UNL1        0.0322
     19 H           5.2286   -4.2140   -3.8995 H       1  UNL1        0.0322
@<TRIPOS>BOND
     1     1     2    1
     2     2     3   am
     3     3     4    2
     4     3     5    1
     5     5     6    1
     6     6     7   am
     7     7     8    1
     8     7     9    2
     9     1    10    1
    10     1    11    1
    11     1    12    1
    12     2    13    1
    13     5    14    1
    14     5    15    1
    15     6    16    1
    16     8    17    1
    17     8    18    1
    18     8    19    1
