@<TRIPOS>MOLECULE
MOL
   35    34     1     0     0
SMALL
No Charge or Current Charge


@<TRIPOS>ATOM
 1  C1  0.407000  1.276000  -0.548000  C.2  1  MOL  0.636107 
 2  C2  -3.206000  -0.708000  1.346000  C.3  1  MOL  -0.195297 
 3  C3  -4.256000  -0.469000  -0.942000  C.3  1  MOL  -0.195297 
 4  C4  1.394000  3.476000  -0.311000  C.3  1  MOL  -0.071473 
 5  C5  0.251000  2.451000  1.648000  C.3  1  MOL  -0.089282 
 6  C6  2.645000  -1.472000  -1.226000  C.3  1  MOL  -0.412669 
 7  C7  -1.885000  0.299000  -0.609000  C.3  1  MOL  -0.083867 
 8  C8  -0.484000  0.151000  0.021000  C.3  1  MOL  -0.206990 
 9  C9  -2.953000  -0.725000  -0.169000  C.3  1  MOL  0.213216 
 10  N1  0.079000  -1.158000  -0.357000  N.3  1  MOL  -0.497998 
 11  N2  0.567000  2.396000  0.219000  N.am  1  MOL  -0.344286 
 12  O1  0.874000  1.175000  -1.682000  O.2  1  MOL  -0.560519 
 13  O2  1.526000  -2.967000  0.672000  O.2  1  MOL  -0.518639 
 14  O3  2.057000  -0.516000  1.176000  O.2  1  MOL  -0.504040 
 15  S1  1.614000  -1.565000  0.243000  S.o2  1  MOL  0.947437 
 16  H1  -3.535000  0.287000  1.675000  H  1  MOL  0.045643 
 17  H2  -3.992000  -1.422000  1.616000  H  1  MOL  0.045643 
 18  H3  -2.313000  -0.973000  1.923000  H  1  MOL  0.045643 
 19  H4  -4.665000  0.522000  -0.703000  H  1  MOL  0.045643 
 20  H5  -4.093000  -0.510000  -2.025000  H  1  MOL  0.045643 
 21  H6  -5.018000  -1.214000  -0.686000  H  1  MOL  0.045643 
 22  H7  0.923000  4.442000  -0.099000  H  1  MOL  0.087465 
 23  H8  1.493000  3.341000  -1.387000  H  1  MOL  0.084069 
 24  H9  2.395000  3.465000  0.141000  H  1  MOL  0.088028 
 25  H10  0.826000  1.710000  2.214000  H  1  MOL  0.094118 
 26  H11  -0.818000  2.304000  1.836000  H  1  MOL  0.067267 
 27  H12  0.512000  3.446000  2.015000  H  1  MOL  0.084095 
 28  H13  3.676000  -1.638000  -0.906000  H  1  MOL  0.187843 
 29  H14  2.323000  -2.253000  -1.917000  H  1  MOL  0.155917 
 30  H15  2.510000  -0.483000  -1.666000  H  1  MOL  0.144151 
 31  H16  -2.250000  1.307000  -0.367000  H  1  MOL  0.066366 
 32  H17  -1.758000  0.259000  -1.697000  H  1  MOL  0.066366 
 33  H18  -0.555000  0.234000  1.107000  H  1  MOL  0.157555 
 34  H19  -2.610000  -1.733000  -0.448000  H  1  MOL  -0.019955 
 35  H20  -0.539000  -1.931000  -0.121000  H  1  MOL  0.346457 
@<TRIPOS>BOND
     1     1     8 1   
     2     1    11 am  
     3     1    12 2   
     4     2     9 1   
     5     2    16 1   
     6     2    17 1   
     7     2    18 1   
     8     3     9 1   
     9     3    19 1   
    10     3    20 1   
    11     3    21 1   
    12     4    11 1   
    13     4    22 1   
    14     4    23 1   
    15     4    24 1   
    16     5    11 1   
    17     5    25 1   
    18     5    26 1   
    19     5    27 1   
    20     6    15 1   
    21     6    28 1   
    22     6    29 1   
    23     6    30 1   
    24     7     8 1   
    25     7     9 1   
    26     7    31 1   
    27     7    32 1   
    28     8    10 1   
    29     8    33 1   
    30     9    34 1   
    31    10    15 1   
    32    10    35 1   
    33    13    15 2   
    34    14    15 2   
@<TRIPOS>SUBSTRUCTURE
     1 MOL         1 TEMP              0 ****  ****    0 ROOT
