@<TRIPOS>MOLECULE
MOL
   35    34     1     0     0
SMALL
No Charge or Current Charge


@<TRIPOS>ATOM
      1 C1           0.4070     1.2760    -0.5480 C.2        1 MOL       0.000000
      2 C2          -3.2060    -0.7080     1.3460 C.3        1 MOL       0.000000
      3 C3          -4.2560    -0.4690    -0.9420 C.3        1 MOL       0.000000
      4 C4           1.3940     3.4760    -0.3110 C.3        1 MOL       0.000000
      5 C5           0.2510     2.4510     1.6480 C.3        1 MOL       0.000000
      6 C6           2.6450    -1.4720    -1.2260 C.3        1 MOL       0.000000
      7 C7          -1.8850     0.2990    -0.6090 C.3        1 MOL       0.000000
      8 C8          -0.4840     0.1510     0.0210 C.3        1 MOL       0.000000
      9 C9          -2.9530    -0.7250    -0.1690 C.3        1 MOL       0.000000
     10 N1           0.0790    -1.1580    -0.3570 N.3        1 MOL       0.000000
     11 N2           0.5670     2.3960     0.2190 N.am       1 MOL       0.000000
     12 O1           0.8740     1.1750    -1.6820 O.2        1 MOL       0.000000
     13 O2           1.5260    -2.9670     0.6720 O.2        1 MOL       0.000000
     14 O3           2.0570    -0.5160     1.1760 O.2        1 MOL       0.000000
     15 S1           1.6140    -1.5650     0.2430 S.o2       1 MOL       0.000000
     16 H1          -3.5350     0.2870     1.6750 H          1 MOL       0.000000
     17 H2          -3.9920    -1.4220     1.6160 H          1 MOL       0.000000
     18 H3          -2.3130    -0.9730     1.9230 H          1 MOL       0.000000
     19 H4          -4.6650     0.5220    -0.7030 H          1 MOL       0.000000
     20 H5          -4.0930    -0.5100    -2.0250 H          1 MOL       0.000000
     21 H6          -5.0180    -1.2140    -0.6860 H          1 MOL       0.000000
     22 H7           0.9230     4.4420    -0.0990 H          1 MOL       0.000000
     23 H8           1.4930     3.3410    -1.3870 H          1 MOL       0.000000
     24 H9           2.3950     3.4650     0.1410 H          1 MOL       0.000000
     25 H10          0.8260     1.7100     2.2140 H          1 MOL       0.000000
     26 H11         -0.8180     2.3040     1.8360 H          1 MOL       0.000000
     27 H12          0.5120     3.4460     2.0150 H          1 MOL       0.000000
     28 H13          3.6760    -1.6380    -0.9060 H          1 MOL       0.000000
     29 H14          2.3230    -2.2530    -1.9170 H          1 MOL       0.000000
     30 H15          2.5100    -0.4830    -1.6660 H          1 MOL       0.000000
     31 H16         -2.2500     1.3070    -0.3670 H          1 MOL       0.000000
     32 H17         -1.7580     0.2590    -1.6970 H          1 MOL       0.000000
     33 H18         -0.5550     0.2340     1.1070 H          1 MOL       0.000000
     34 H19         -2.6100    -1.7330    -0.4480 H          1 MOL       0.000000
     35 H20         -0.5390    -1.9310    -0.1210 H          1 MOL       0.000000
@<TRIPOS>BOND
     1     1     8 1   
     2     1    11 am  
     3     1    12 2   
     4     2     9 1   
     5     2    16 1   
     6     2    17 1   
     7     2    18 1   
     8     3     9 1   
     9     3    19 1   
    10     3    20 1   
    11     3    21 1   
    12     4    11 1   
    13     4    22 1   
    14     4    23 1   
    15     4    24 1   
    16     5    11 1   
    17     5    25 1   
    18     5    26 1   
    19     5    27 1   
    20     6    15 1   
    21     6    28 1   
    22     6    29 1   
    23     6    30 1   
    24     7     8 1   
    25     7     9 1   
    26     7    31 1   
    27     7    32 1   
    28     8    10 1   
    29     8    33 1   
    30     9    34 1   
    31    10    15 1   
    32    10    35 1   
    33    13    15 2   
    34    14    15 2   
@<TRIPOS>SUBSTRUCTURE
     1 MOL         1 TEMP              0 ****  ****    0 ROOT
