@<TRIPOS>MOLECULE
*****
 23 23 0 0 0
SMALL
GASTEIGER

@<TRIPOS>ATOM
      1 C           1.1997    0.0897   -0.0062 C.3     1  UNL1        0.0122
      2 C           2.7017    0.0280    0.0583 C.2     1  UNL1        0.2102
      3 O           3.3040   -0.6554    0.8806 O.2     1  UNL1        0.2761
      4 N           3.3265    0.8072   -0.8831 N.am    1  UNL1        0.3114
      5 C           4.7701    0.8686   -0.9734 C.3     1  UNL1        0.0383
      6 C           5.1848    1.8170   -2.0574 C.ar    1  UNL1        0.0121
      7 C           5.1284    3.1980   -1.8688 C.ar    1  UNL1        0.0524
      8 C           5.4068    4.0504   -2.9337 C.ar    1  UNL1        0.0218
      9 C           5.6939    3.5041   -4.1752 C.ar    1  UNL1        0.1161
     10 N           5.9424    4.3347   -5.2641 N.pl3   1  UNL1        0.3431
     11 N           5.7984    2.1799   -4.3759 N.ar    1  UNL1        0.2404
     12 C           5.5593    1.3671   -3.3176 C.ar    1  UNL1        0.0343
     13 H           0.7722   -0.5596    0.7633 H       1  UNL1        0.0322
     14 H           0.8529   -0.2520   -0.9855 H       1  UNL1        0.0322
     15 H           0.8600    1.1141    0.1704 H       1  UNL1        0.0322
     16 H           2.7708    1.3377   -1.5425 H       1  UNL1        0.1490
     17 H           5.1502   -0.1434   -1.1557 H       1  UNL1        0.0512
     18 H           5.1687    1.1913   -0.0042 H       1  UNL1        0.0512
     19 H           4.8578    3.6149   -0.9022 H       1  UNL1        0.0622
     20 H           5.3732    5.1255   -2.8000 H       1  UNL1        0.0652
     21 H           5.2620    5.0789   -5.3514 H       1  UNL1        0.1437
     22 H           5.9913    3.7472   -6.0926 H       1  UNL1        0.1437
     23 H           5.6699    0.3061   -3.5295 H       1  UNL1        0.0833
@<TRIPOS>BOND
     1     1     2    1
     2     2     3    2
     3     2     4   am
     4     4     5    1
     5     5     6    1
     6     6     7   ar
     7     7     8   ar
     8     8     9   ar
     9     9    10    1
    10     9    11   ar
    11    11    12   ar
    12     6    12   ar
    13     1    13    1
    14     1    14    1
    15     1    15    1
    16     4    16    1
    17     5    17    1
    18     5    18    1
    19     7    19    1
    20     8    20    1
    21    10    21    1
    22    10    22    1
    23    12    23    1
