@<TRIPOS>MOLECULE
MOL
   26    26     1     0     0
SMALL
No Charge or Current Charge


@<TRIPOS>ATOM
 1  C1  1.460000  0.432000  -0.089000  C.2  1  MOL  0.503436 
 2  C2  -1.278000  -1.362000  -0.168000  C.2  1  MOL  0.385640 
 3  C3  -1.101000  2.277000  0.454000  C.3  1  MOL  0.027364 
 4  C4  -0.338000  2.075000  -0.865000  C.3  1  MOL  0.073905 
 5  C5  -1.865000  0.957000  0.633000  C.3  1  MOL  0.112111 
 6  C6  0.091000  0.604000  -0.802000  C.3  1  MOL  0.045919 
 7  C7  -2.532000  -1.877000  0.519000  C.3  1  MOL  0.001210 
 8  C8  3.164000  -1.229000  0.541000  C.3  1  MOL  -0.007740 
 9  N1  -1.008000  -0.035000  -0.041000  N.am  1  MOL  -0.346694 
 10  N2  1.935000  -0.838000  -0.124000  N.am  1  MOL  -0.472190 
 11  O1  2.042000  1.379000  0.435000  O.2  1  MOL  -0.505502 
 12  O2  -0.538000  -2.123000  -0.805000  O.2  1  MOL  -0.473840 
 13  H1  -0.380000  2.411000  1.266000  H  1  MOL  0.005220 
 14  H2  -1.773000  3.140000  0.441000  H  1  MOL  0.005220 
 15  H3  -1.000000  2.230000  -1.725000  H  1  MOL  -0.004788 
 16  H4  0.525000  2.736000  -0.953000  H  1  MOL  -0.004788 
 17  H5  -2.018000  0.697000  1.686000  H  1  MOL  0.027702 
 18  H6  -2.852000  1.000000  0.151000  H  1  MOL  0.027702 
 19  H7  0.147000  0.128000  -1.787000  H  1  MOL  0.033194 
 20  H8  -3.430000  -1.358000  0.163000  H  1  MOL  0.029000 
 21  H9  -2.477000  -1.730000  1.604000  H  1  MOL  0.029000 
 22  H10  -2.623000  -2.942000  0.306000  H  1  MOL  0.029000 
 23  H11  3.685000  -0.321000  0.846000  H  1  MOL  0.061720 
 24  H12  3.803000  -1.803000  -0.139000  H  1  MOL  0.061720 
 25  H13  2.964000  -1.840000  1.431000  H  1  MOL  0.061720 
 26  H14  1.309000  -1.549000  -0.501000  H  1  MOL  0.294760 
@<TRIPOS>BOND
     1    1    6 1   
     2    1   10 am  
     3    1   11 2   
     4    2    7 1   
     5    2    9 am  
     6    2   12 2   
     7    3    4 1   
     8    3    5 1   
     9    3   13 1   
    10    3   14 1   
    11    4    6 1   
    12    4   15 1   
    13    4   16 1   
    14    5    9 1   
    15    5   17 1   
    16    5   18 1   
    17    6    9 1   
    18    6   19 1   
    19    7   20 1   
    20    7   21 1   
    21    7   22 1   
    22    8   10 1   
    23    8   23 1   
    24    8   24 1   
    25    8   25 1   
    26   10   26 1   
@<TRIPOS>SUBSTRUCTURE
     1 MOL         1 TEMP              0 ****  ****    0 ROOT
