@<TRIPOS>MOLECULE
MOL
   26    26     1     0     0
SMALL
No Charge or Current Charge


@<TRIPOS>ATOM
      1 C1          1.4600    0.4320   -0.0890 C.2       1 MOL      0.000000
      2 C2         -1.2780   -1.3620   -0.1680 C.2       1 MOL      0.000000
      3 C3         -1.1010    2.2770    0.4540 C.3       1 MOL      0.000000
      4 C4         -0.3380    2.0750   -0.8650 C.3       1 MOL      0.000000
      5 C5         -1.8650    0.9570    0.6330 C.3       1 MOL      0.000000
      6 C6          0.0910    0.6040   -0.8020 C.3       1 MOL      0.000000
      7 C7         -2.5320   -1.8770    0.5190 C.3       1 MOL      0.000000
      8 C8          3.1640   -1.2290    0.5410 C.3       1 MOL      0.000000
      9 N1         -1.0080   -0.0350   -0.0410 N.am      1 MOL      0.000000
     10 N2          1.9350   -0.8380   -0.1240 N.am      1 MOL      0.000000
     11 O1          2.0420    1.3790    0.4350 O.2       1 MOL      0.000000
     12 O2         -0.5380   -2.1230   -0.8050 O.2       1 MOL      0.000000
     13 H1         -0.3800    2.4110    1.2660 H         1 MOL      0.000000
     14 H2         -1.7730    3.1400    0.4410 H         1 MOL      0.000000
     15 H3         -1.0000    2.2300   -1.7250 H         1 MOL      0.000000
     16 H4          0.5250    2.7360   -0.9530 H         1 MOL      0.000000
     17 H5         -2.0180    0.6970    1.6860 H         1 MOL      0.000000
     18 H6         -2.8520    1.0000    0.1510 H         1 MOL      0.000000
     19 H7          0.1470    0.1280   -1.7870 H         1 MOL      0.000000
     20 H8         -3.4300   -1.3580    0.1630 H         1 MOL      0.000000
     21 H9         -2.4770   -1.7300    1.6040 H         1 MOL      0.000000
     22 H10        -2.6230   -2.9420    0.3060 H         1 MOL      0.000000
     23 H11         3.6850   -0.3210    0.8460 H         1 MOL      0.000000
     24 H12         3.8030   -1.8030   -0.1390 H         1 MOL      0.000000
     25 H13         2.9640   -1.8400    1.4310 H         1 MOL      0.000000
     26 H14         1.3090   -1.5490   -0.5010 H         1 MOL      0.000000
@<TRIPOS>BOND
     1    1    6 1   
     2    1   10 am  
     3    1   11 2   
     4    2    7 1   
     5    2    9 am  
     6    2   12 2   
     7    3    4 1   
     8    3    5 1   
     9    3   13 1   
    10    3   14 1   
    11    4    6 1   
    12    4   15 1   
    13    4   16 1   
    14    5    9 1   
    15    5   17 1   
    16    5   18 1   
    17    6    9 1   
    18    6   19 1   
    19    7   20 1   
    20    7   21 1   
    21    7   22 1   
    22    8   10 1   
    23    8   23 1   
    24    8   24 1   
    25    8   25 1   
    26   10   26 1   
@<TRIPOS>SUBSTRUCTURE
     1 MOL         1 TEMP              0 ****  ****    0 ROOT
