@<TRIPOS>MOLECULE
*****
 23 23 0 0 0
SMALL
GASTEIGER

@<TRIPOS>ATOM
      1 C           1.1838   -0.1072   -0.0052 C.3     1  UNL1        0.0122
      2 C           2.6870   -0.0405    0.0577 C.2     1  UNL1        0.2102
      3 O           3.2826    0.7181    0.8143 O.2     1  UNL1        0.2761
      4 N           3.3226   -0.9030   -0.8017 N.am    1  UNL1        0.3114
      5 C           4.7692   -0.9652   -0.8641 C.3     1  UNL1        0.0368
      6 C           5.2069   -1.9835   -1.8862 C.ar    1  UNL1        0.0303
      7 C           5.5990   -1.5833   -3.1712 C.ar    1  UNL1        0.0559
      8 C           5.7971   -2.5332   -4.1771 C.ar    1  UNL1        0.0440
      9 C           5.6335   -3.8938   -3.8993 C.ar    1  UNL1        0.0518
     10 C           5.6908   -4.8568   -4.9585 C.1     1  UNL1        0.0992
     11 N           5.6904   -5.6337   -5.8229 N.1     1  UNL1        0.1909
     12 C           5.3456   -4.3043   -2.5945 C.ar    1  UNL1        0.0440
     13 C           5.1230   -3.3534   -1.5959 C.ar    1  UNL1        0.0559
     14 H           0.7583    0.6109    0.7025 H       1  UNL1        0.0322
     15 H           0.8393   -1.1091    0.2655 H       1  UNL1        0.0322
     16 H           0.8359    0.1464   -1.0103 H       1  UNL1        0.0322
     17 H           2.7787   -1.4996   -1.4119 H       1  UNL1        0.1490
     18 H           5.1548   -1.2213    0.1293 H       1  UNL1        0.0512
     19 H           5.1471    0.0337   -1.1115 H       1  UNL1        0.0512
     20 H           5.7158   -0.5269   -3.4076 H       1  UNL1        0.0621
     21 H           6.0430   -2.2011   -5.1844 H       1  UNL1        0.0630
     22 H           5.2531   -5.3623   -2.3556 H       1  UNL1        0.0630
     23 H           4.8456   -3.6841   -0.5962 H       1  UNL1        0.0621
@<TRIPOS>BOND
     1     1     2    1
     2     2     3    2
     3     2     4   am
     4     4     5    1
     5     5     6    1
     6     6     7   ar
     7     7     8   ar
     8     8     9   ar
     9     9    10    1
    10    10    11    3
    11     9    12   ar
    12    12    13   ar
    13     6    13   ar
    14     1    14    1
    15     1    15    1
    16     1    16    1
    17     4    17    1
    18     5    18    1
    19     5    19    1
    20     7    20    1
    21     8    21    1
    22    12    22    1
    23    13    23    1
