@<TRIPOS>MOLECULE
MOL
   18    17     1     0     0
SMALL
No Charge or Current Charge


@<TRIPOS>ATOM
      1 C1           1.5080     0.1940    -0.0420 C.2        1 MOL       0.000000
      2 C2           2.8410    -0.4230     0.3610 C.3        1 MOL       0.000000
      3 C3          -3.1950     0.2180     0.1610 C.3        1 MOL       0.000000
      4 C4          -1.7790    -0.2280     0.5400 C.3        1 MOL       0.000000
      5 C5          -0.8390    -0.2710    -0.6730 C.3        1 MOL       0.000000
      6 N1           0.5150    -0.6980    -0.3470 N.am       1 MOL       0.000000
      7 O1           1.3480     1.4080    -0.0970 O.2        1 MOL       0.000000
      8 H1           2.8620    -1.5160     0.2980 H          1 MOL       0.000000
      9 H2           3.6250    -0.0140    -0.2840 H          1 MOL       0.000000
     10 H3           3.0740    -0.1220     1.3870 H          1 MOL       0.000000
     11 H4          -3.1880     1.2210    -0.2820 H          1 MOL       0.000000
     12 H5          -3.6470    -0.4650    -0.5690 H          1 MOL       0.000000
     13 H6          -3.8490     0.2460     1.0390 H          1 MOL       0.000000
     14 H7          -1.8140    -1.2210     1.0100 H          1 MOL       0.000000
     15 H8          -1.3530     0.4580     1.2820 H          1 MOL       0.000000
     16 H9          -1.2400    -0.9450    -1.4410 H          1 MOL       0.000000
     17 H10         -0.7530     0.7260    -1.1130 H          1 MOL       0.000000
     18 H11          0.6840    -1.6820    -0.1970 H          1 MOL       0.000000
@<TRIPOS>BOND
     1     1     2 1   
     2     1     6 am  
     3     1     7 2   
     4     2     8 1   
     5     2     9 1   
     6     2    10 1   
     7     3     4 1   
     8     3    11 1   
     9     3    12 1   
    10     3    13 1   
    11     4     5 1   
    12     4    14 1   
    13     4    15 1   
    14     5     6 1   
    15     5    16 1   
    16     5    17 1   
    17     6    18 1   
@<TRIPOS>SUBSTRUCTURE
     1 MOL         1 TEMP              0 ****  ****    0 ROOT
