@<TRIPOS>MOLECULE
MOL
   18    17     1     0     0
SMALL
No Charge or Current Charge


@<TRIPOS>ATOM
 1  C1  1.508000  0.194000  -0.042000  C.2  1  MOL  0.510929 
 2  C2  2.841000  -0.423000  0.361000  C.3  1  MOL  -0.313908 
 3  C3  -3.195000  0.218000  0.161000  C.3  1  MOL  -0.157319 
 4  C4  -1.779000  -0.228000  0.540000  C.3  1  MOL  0.171050 
 5  C5  -0.839000  -0.271000  -0.673000  C.3  1  MOL  -0.298619 
 6  N1  0.515000  -0.698000  -0.347000  N.am  1  MOL  -0.353167 
 7  O1  1.348000  1.408000  -0.097000  O.2  1  MOL  -0.514977 
 8  H1  2.862000  -1.516000  0.298000  H  1  MOL  0.111818 
 9  H2  3.625000  -0.014000  -0.284000  H  1  MOL  0.116842 
 10  H3  3.074000  -0.122000  1.387000  H  1  MOL  0.089295 
 11  H4  -3.188000  1.221000  -0.282000  H  1  MOL  0.038723 
 12  H5  -3.647000  -0.465000  -0.569000  H  1  MOL  0.038723 
 13  H6  -3.849000  0.246000  1.039000  H  1  MOL  0.038723 
 14  H7  -1.814000  -1.221000  1.010000  H  1  MOL  -0.005095 
 15  H8  -1.353000  0.458000  1.282000  H  1  MOL  -0.005095 
 16  H9  -1.240000  -0.945000  -1.441000  H  1  MOL  0.137563 
 17  H10  -0.753000  0.726000  -1.113000  H  1  MOL  0.137563 
 18  H11  0.684000  -1.682000  -0.197000  H  1  MOL  0.256949 
@<TRIPOS>BOND
     1     1     2 1   
     2     1     6 am  
     3     1     7 2   
     4     2     8 1   
     5     2     9 1   
     6     2    10 1   
     7     3     4 1   
     8     3    11 1   
     9     3    12 1   
    10     3    13 1   
    11     4     5 1   
    12     4    14 1   
    13     4    15 1   
    14     5     6 1   
    15     5    16 1   
    16     5    17 1   
    17     6    18 1   
@<TRIPOS>SUBSTRUCTURE
     1 MOL         1 TEMP              0 ****  ****    0 ROOT
