@<TRIPOS>MOLECULE
MOL
   33    32     1     0     0
SMALL
No Charge or Current Charge


@<TRIPOS>ATOM
 1  C1  1.881000  -1.377000  0.202000  C.2  1  MOL  0.596329 
 2  C2  0.625000  1.363000  -0.633000  C.2  1  MOL  0.636107 
 3  C3  4.067000  -2.511000  -0.035000  C.3  1  MOL  -0.006198 
 4  C4  1.883000  3.424000  -0.437000  C.3  1  MOL  -0.071473 
 5  C5  1.356000  2.155000  1.630000  C.3  1  MOL  -0.089282 
 6  C6  -3.706000  0.548000  1.044000  C.3  1  MOL  -0.412669 
 7  C7  0.522000  -1.157000  -0.454000  C.3  1  MOL  -0.331483 
 8  C8  -0.134000  0.168000  -0.014000  C.3  1  MOL  -0.166729 
 9  N1  2.754000  -2.129000  -0.524000  N.am  1  MOL  -0.470020 
 10  N2  -1.503000  0.338000  -0.532000  N.3  1  MOL  -0.497998 
 11  N3  1.275000  2.245000  0.172000  N.am  1  MOL  -0.344286 
 12  O1  2.149000  -0.935000  1.319000  O.2  1  MOL  -0.524049 
 13  O2  0.583000  1.472000  -1.861000  O.2  1  MOL  -0.560519 
 14  O3  -2.278000  -1.662000  0.896000  O.2  1  MOL  -0.518639 
 15  O4  -3.604000  -0.914000  -1.164000  O.2  1  MOL  -0.504040 
 16  S1  -2.783000  -0.604000  0.011000  S.o2  1  MOL  0.947437 
 17  H1  4.190000  -2.066000  0.953000  H  1  MOL  0.068972 
 18  H2  4.858000  -2.141000  -0.698000  H  1  MOL  0.058547 
 19  H3  4.157000  -3.601000  0.048000  H  1  MOL  0.062004 
 20  H4  1.430000  4.338000  -0.031000  H  1  MOL  0.087465 
 21  H5  1.719000  3.383000  -1.512000  H  1  MOL  0.084069 
 22  H6  2.960000  3.448000  -0.229000  H  1  MOL  0.088028 
 23  H7  1.448000  1.118000  1.950000  H  1  MOL  0.094118 
 24  H8  0.496000  2.636000  2.115000  H  1  MOL  0.067267 
 25  H9  2.261000  2.679000  1.952000  H  1  MOL  0.084095 
 26  H10  -4.566000  0.005000  1.444000  H  1  MOL  0.187843 
 27  H11  -3.062000  0.887000  1.858000  H  1  MOL  0.155917 
 28  H12  -4.033000  1.387000  0.429000  H  1  MOL  0.144151 
 29  H13  -0.136000  -1.976000  -0.146000  H  1  MOL  0.146977 
 30  H14  0.598000  -1.167000  -1.547000  H  1  MOL  0.146977 
 31  H15  -0.176000  0.200000  1.073000  H  1  MOL  0.207932 
 32  H16  2.465000  -2.449000  -1.437000  H  1  MOL  0.286695 
 33  H17  -1.526000  0.447000  -1.545000  H  1  MOL  0.346457 
@<TRIPOS>BOND
     1     1     7 1   
     2     1     9 am  
     3     1    12 2   
     4     2     8 1   
     5     2    11 am  
     6     2    13 2   
     7     3     9 1   
     8     3    17 1   
     9     3    18 1   
    10     3    19 1   
    11     4    11 1   
    12     4    20 1   
    13     4    21 1   
    14     4    22 1   
    15     5    11 1   
    16     5    23 1   
    17     5    24 1   
    18     5    25 1   
    19     6    16 1   
    20     6    26 1   
    21     6    27 1   
    22     6    28 1   
    23     7     8 1   
    24     7    29 1   
    25     7    30 1   
    26     8    10 1   
    27     8    31 1   
    28     9    32 1   
    29    10    16 1   
    30    10    33 1   
    31    14    16 2   
    32    15    16 2   
@<TRIPOS>SUBSTRUCTURE
     1 MOL         1 TEMP              0 ****  ****    0 ROOT
