@<TRIPOS>MOLECULE
MOL
   33    32     1     0     0
SMALL
No Charge or Current Charge


@<TRIPOS>ATOM
      1 C1           1.8810    -1.3770     0.2020 C.2        1 MOL       0.000000
      2 C2           0.6250     1.3630    -0.6330 C.2        1 MOL       0.000000
      3 C3           4.0670    -2.5110    -0.0350 C.3        1 MOL       0.000000
      4 C4           1.8830     3.4240    -0.4370 C.3        1 MOL       0.000000
      5 C5           1.3560     2.1550     1.6300 C.3        1 MOL       0.000000
      6 C6          -3.7060     0.5480     1.0440 C.3        1 MOL       0.000000
      7 C7           0.5220    -1.1570    -0.4540 C.3        1 MOL       0.000000
      8 C8          -0.1340     0.1680    -0.0140 C.3        1 MOL       0.000000
      9 N1           2.7540    -2.1290    -0.5240 N.am       1 MOL       0.000000
     10 N2          -1.5030     0.3380    -0.5320 N.3        1 MOL       0.000000
     11 N3           1.2750     2.2450     0.1720 N.am       1 MOL       0.000000
     12 O1           2.1490    -0.9350     1.3190 O.2        1 MOL       0.000000
     13 O2           0.5830     1.4720    -1.8610 O.2        1 MOL       0.000000
     14 O3          -2.2780    -1.6620     0.8960 O.2        1 MOL       0.000000
     15 O4          -3.6040    -0.9140    -1.1640 O.2        1 MOL       0.000000
     16 S1          -2.7830    -0.6040     0.0110 S.o2       1 MOL       0.000000
     17 H1           4.1900    -2.0660     0.9530 H          1 MOL       0.000000
     18 H2           4.8580    -2.1410    -0.6980 H          1 MOL       0.000000
     19 H3           4.1570    -3.6010     0.0480 H          1 MOL       0.000000
     20 H4           1.4300     4.3380    -0.0310 H          1 MOL       0.000000
     21 H5           1.7190     3.3830    -1.5120 H          1 MOL       0.000000
     22 H6           2.9600     3.4480    -0.2290 H          1 MOL       0.000000
     23 H7           1.4480     1.1180     1.9500 H          1 MOL       0.000000
     24 H8           0.4960     2.6360     2.1150 H          1 MOL       0.000000
     25 H9           2.2610     2.6790     1.9520 H          1 MOL       0.000000
     26 H10         -4.5660     0.0050     1.4440 H          1 MOL       0.000000
     27 H11         -3.0620     0.8870     1.8580 H          1 MOL       0.000000
     28 H12         -4.0330     1.3870     0.4290 H          1 MOL       0.000000
     29 H13         -0.1360    -1.9760    -0.1460 H          1 MOL       0.000000
     30 H14          0.5980    -1.1670    -1.5470 H          1 MOL       0.000000
     31 H15         -0.1760     0.2000     1.0730 H          1 MOL       0.000000
     32 H16          2.4650    -2.4490    -1.4370 H          1 MOL       0.000000
     33 H17         -1.5260     0.4470    -1.5450 H          1 MOL       0.000000
@<TRIPOS>BOND
     1     1     7 1   
     2     1     9 am  
     3     1    12 2   
     4     2     8 1   
     5     2    11 am  
     6     2    13 2   
     7     3     9 1   
     8     3    17 1   
     9     3    18 1   
    10     3    19 1   
    11     4    11 1   
    12     4    20 1   
    13     4    21 1   
    14     4    22 1   
    15     5    11 1   
    16     5    23 1   
    17     5    24 1   
    18     5    25 1   
    19     6    16 1   
    20     6    26 1   
    21     6    27 1   
    22     6    28 1   
    23     7     8 1   
    24     7    29 1   
    25     7    30 1   
    26     8    10 1   
    27     8    31 1   
    28     9    32 1   
    29    10    16 1   
    30    10    33 1   
    31    14    16 2   
    32    15    16 2   
@<TRIPOS>SUBSTRUCTURE
     1 MOL         1 TEMP              0 ****  ****    0 ROOT
