@<TRIPOS>MOLECULE
MOL
   29    29     1     0     0
SMALL
No Charge or Current Charge


@<TRIPOS>ATOM
 1  C1  1.437000  0.457000  -0.116000  C.2  1  MOL  0.512522 
 2  C2  -0.976000  -1.753000  -0.210000  C.2  1  MOL  0.385640 
 3  C3  -0.950000  2.591000  -0.128000  C.3  1  MOL  -0.040436 
 4  C4  -1.346000  1.736000  1.090000  C.3  1  MOL  0.017005 
 5  C5  -0.455000  1.714000  -1.302000  C.3  1  MOL  0.031690 
 6  C6  -1.925000  0.383000  0.670000  C.3  1  MOL  0.115164 
 7  C7  0.089000  0.345000  -0.876000  C.3  1  MOL  0.005860 
 8  C8  -2.132000  -2.486000  0.450000  C.3  1  MOL  0.001210 
 9  C9  3.363000  -0.856000  0.684000  C.3  1  MOL  -0.007740 
 10  N1  -0.930000  -0.393000  -0.091000  N.am  1  MOL  -0.314144 
 11  N2  2.106000  -0.721000  -0.028000  N.am  1  MOL  -0.472190 
 12  O1  1.851000  1.523000  0.336000  O.2  1  MOL  -0.499217 
 13  O2  -0.108000  -2.383000  -0.828000  O.2  1  MOL  -0.473840 
 14  H1  -1.811000  3.182000  -0.465000  H  1  MOL  0.015099 
 15  H2  -0.167000  3.291000  0.170000  H  1  MOL  0.015099 
 16  H3  -0.464000  1.561000  1.715000  H  1  MOL  0.009618 
 17  H4  -2.085000  2.257000  1.710000  H  1  MOL  0.009618 
 18  H5  -1.281000  1.526000  -2.000000  H  1  MOL  0.019151 
 19  H6  0.324000  2.233000  -1.866000  H  1  MOL  0.019151 
 20  H7  -2.213000  -0.187000  1.557000  H  1  MOL  0.024348 
 21  H8  -2.835000  0.533000  0.068000  H  1  MOL  0.024348 
 22  H9  0.271000  -0.264000  -1.766000  H  1  MOL  0.035123 
 23  H10  -3.105000  -2.054000  0.192000  H  1  MOL  0.029000 
 24  H11  -2.039000  -2.466000  1.542000  H  1  MOL  0.029000 
 25  H12  -2.095000  -3.524000  0.118000  H  1  MOL  0.029000 
 26  H13  4.120000  -1.328000  0.047000  H  1  MOL  0.061720 
 27  H14  3.247000  -1.460000  1.593000  H  1  MOL  0.061720 
 28  H15  3.699000  0.143000  0.962000  H  1  MOL  0.061720 
 29  H16  1.629000  -1.546000  -0.389000  H  1  MOL  0.294760 
@<TRIPOS>BOND
     1     1     7 1   
     2     1    11 am  
     3     1    12 2   
     4     2     8 1   
     5     2    10 am  
     6     2    13 2   
     7     3     4 1   
     8     3     5 1   
     9     3    14 1   
    10     3    15 1   
    11     4     6 1   
    12     4    16 1   
    13     4    17 1   
    14     5     7 1   
    15     5    18 1   
    16     5    19 1   
    17     6    10 1   
    18     6    20 1   
    19     6    21 1   
    20     7    10 1   
    21     7    22 1   
    22     8    23 1   
    23     8    24 1   
    24     8    25 1   
    25     9    11 1   
    26     9    26 1   
    27     9    27 1   
    28     9    28 1   
    29    11    29 1   
@<TRIPOS>SUBSTRUCTURE
     1 MOL         1 TEMP              0 ****  ****    0 ROOT
