@<TRIPOS>MOLECULE
MOL
   23    23     1     0     0
SMALL
No Charge or Current Charge


@<TRIPOS>ATOM
 1  C1  1.200000  0.056000  0.153000  C.2  1  MOL  0.596329 
 2  C2  -1.871000  -0.843000  -0.079000  C.2  1  MOL  0.562201 
 3  C3  -0.232000  2.186000  -0.165000  C.3  1  MOL  -0.002095 
 4  C4  -1.620000  1.644000  0.273000  C.3  1  MOL  -0.003418 
 5  C5  0.107000  0.744000  -0.674000  C.3  1  MOL  -0.243362 
 6  C6  -1.146000  -2.083000  -0.573000  C.3  1  MOL  -0.157534 
 7  C7  3.589000  -0.585000  0.165000  C.3  1  MOL  -0.006198 
 8  N1  -1.263000  0.359000  -0.333000  N.am  1  MOL  -0.199344 
 9  N2  2.404000  -0.047000  -0.480000  N.am  1  MOL  -0.470020 
 10  O1  0.999000  -0.321000  1.301000  O.2  1  MOL  -0.524049 
 11  O2  -2.946000  -0.884000  0.504000  O.2  1  MOL  -0.565919 
 12  H1  -0.261000  2.935000  -0.959000  H  1  MOL  0.051338 
 13  H2  0.405000  2.537000  0.649000  H  1  MOL  0.051338 
 14  H3  -1.772000  1.573000  1.354000  H  1  MOL  0.067804 
 15  H4  -2.493000  2.123000  -0.183000  H  1  MOL  0.067804 
 16  H5  0.327000  0.678000  -1.750000  H  1  MOL  0.137656 
 17  H6  -0.448000  -2.420000  0.201000  H  1  MOL  0.062556 
 18  H7  -0.576000  -1.905000  -1.492000  H  1  MOL  0.040540 
 19  H8  -1.883000  -2.869000  -0.747000  H  1  MOL  0.058157 
 20  H9  3.304000  -0.876000  1.177000  H  1  MOL  0.068972 
 21  H10  4.387000  0.164000  0.217000  H  1  MOL  0.058547 
 22  H11  3.964000  -1.466000  -0.370000  H  1  MOL  0.062004 
 23  H12  2.477000  0.273000  -1.436000  H  1  MOL  0.286695 
@<TRIPOS>BOND
     1     1     5 1   
     2     1     9 am  
     3     1    10 2   
     4     2     6 1   
     5     2     8 am  
     6     2    11 2   
     7     3     4 1   
     8     3     5 1   
     9     3    12 1   
    10     3    13 1   
    11     4     8 1   
    12     4    14 1   
    13     4    15 1   
    14     5     8 1   
    15     5    16 1   
    16     6    17 1   
    17     6    18 1   
    18     6    19 1   
    19     7     9 1   
    20     7    20 1   
    21     7    21 1   
    22     7    22 1   
    23     9    23 1   
@<TRIPOS>SUBSTRUCTURE
     1 MOL         1 TEMP              0 ****  ****    0 ROOT
