@<TRIPOS>MOLECULE
MOL
   24    24     1     0     0
SMALL
No Charge or Current Charge


@<TRIPOS>ATOM
 1  C1  -1.327000  -1.634000  0.056000  C.ar  1  MOL  -0.200459 
 2  C2  0.052000  -1.533000  -0.104000  C.ar  1  MOL  -0.200904 
 3  C3  -0.144000  0.880000  -0.284000  C.ar  1  MOL  0.032124 
 4  C4  -2.133000  -0.484000  0.053000  C.ar  1  MOL  0.401713 
 5  C5  0.636000  -0.278000  -0.268000  C.ar  1  MOL  -0.097638 
 6  C6  -1.519000  0.774000  -0.120000  C.ar  1  MOL  -0.121116 
 7  C7  3.088000  0.644000  1.995000  C.3  1  MOL  0.017566 
 8  C8  -4.142000  -1.737000  0.367000  C.3  1  MOL  -0.015901 
 9  N1  2.995000  -0.485000  1.059000  N.3  1  MOL  -0.613581 
 10  O1  2.869000  -1.273000  -1.314000  O.2  1  MOL  -0.489319 
 11  O2  2.693000  1.241000  -0.876000  O.2  1  MOL  -0.489319 
 12  O3  -3.475000  -0.491000  0.203000  O.3  1  MOL  -0.337172 
 13  S1  2.405000  -0.148000  -0.495000  S.o2  1  MOL  0.879864 
 14  Cl1  -2.505000  2.218000  -0.136000  Cl  1  MOL  -0.094975 
 15  H1  -1.776000  -2.612000  0.179000  H  1  MOL  0.132667 
 16  H2  0.668000  -2.426000  -0.112000  H  1  MOL  0.212694 
 17  H3  0.319000  1.848000  -0.435000  H  1  MOL  0.131927 
 18  H4  2.083000  1.029000  2.190000  H  1  MOL  0.085324 
 19  H5  3.717000  1.464000  1.630000  H  1  MOL  0.073678 
 20  H6  3.490000  0.262000  2.937000  H  1  MOL  0.067220 
 21  H7  -5.200000  -1.492000  0.463000  H  1  MOL  0.085271 
 22  H8  -3.804000  -2.255000  1.273000  H  1  MOL  0.085271 
 23  H9  -3.995000  -2.386000  -0.505000  H  1  MOL  0.085271 
 24  H10  3.874000  -0.984000  0.931000  H  1  MOL  0.369792 
@<TRIPOS>BOND
     1     1     2 ar  
     2     1     4 ar  
     3     1    15 1   
     4     2     5 ar  
     5     2    16 1   
     6     3     5 ar  
     7     3     6 ar  
     8     3    17 1   
     9     4     6 ar  
    10     4    12 1   
    11     5    13 1   
    12     6    14 1   
    13     7     9 1   
    14     7    18 1   
    15     7    19 1   
    16     7    20 1   
    17     8    12 1   
    18     8    21 1   
    19     8    22 1   
    20     8    23 1   
    21     9    13 1   
    22     9    24 1   
    23    10    13 2   
    24    11    13 2   
@<TRIPOS>SUBSTRUCTURE
     1 MOL         1 TEMP              0 ****  ****    0 ROOT
