@<TRIPOS>MOLECULE
MOL
   24    24     1     0     0
SMALL
No Charge or Current Charge


@<TRIPOS>ATOM
      1 C1          -1.3270    -1.6340     0.0560 C.ar       1 MOL       0.000000
      2 C2           0.0520    -1.5330    -0.1040 C.ar       1 MOL       0.000000
      3 C3          -0.1440     0.8800    -0.2840 C.ar       1 MOL       0.000000
      4 C4          -2.1330    -0.4840     0.0530 C.ar       1 MOL       0.000000
      5 C5           0.6360    -0.2780    -0.2680 C.ar       1 MOL       0.000000
      6 C6          -1.5190     0.7740    -0.1200 C.ar       1 MOL       0.000000
      7 C7           3.0880     0.6440     1.9950 C.3        1 MOL       0.000000
      8 C8          -4.1420    -1.7370     0.3670 C.3        1 MOL       0.000000
      9 N1           2.9950    -0.4850     1.0590 N.3        1 MOL       0.000000
     10 O1           2.8690    -1.2730    -1.3140 O.2        1 MOL       0.000000
     11 O2           2.6930     1.2410    -0.8760 O.2        1 MOL       0.000000
     12 O3          -3.4750    -0.4910     0.2030 O.3        1 MOL       0.000000
     13 S1           2.4050    -0.1480    -0.4950 S.o2       1 MOL       0.000000
     14 Cl1         -2.5050     2.2180    -0.1360 Cl         1 MOL       0.000000
     15 H1          -1.7760    -2.6120     0.1790 H          1 MOL       0.000000
     16 H2           0.6680    -2.4260    -0.1120 H          1 MOL       0.000000
     17 H3           0.3190     1.8480    -0.4350 H          1 MOL       0.000000
     18 H4           2.0830     1.0290     2.1900 H          1 MOL       0.000000
     19 H5           3.7170     1.4640     1.6300 H          1 MOL       0.000000
     20 H6           3.4900     0.2620     2.9370 H          1 MOL       0.000000
     21 H7          -5.2000    -1.4920     0.4630 H          1 MOL       0.000000
     22 H8          -3.8040    -2.2550     1.2730 H          1 MOL       0.000000
     23 H9          -3.9950    -2.3860    -0.5050 H          1 MOL       0.000000
     24 H10          3.8740    -0.9840     0.9310 H          1 MOL       0.000000
@<TRIPOS>BOND
     1     1     2 ar  
     2     1     4 ar  
     3     1    15 1   
     4     2     5 ar  
     5     2    16 1   
     6     3     5 ar  
     7     3     6 ar  
     8     3    17 1   
     9     4     6 ar  
    10     4    12 1   
    11     5    13 1   
    12     6    14 1   
    13     7     9 1   
    14     7    18 1   
    15     7    19 1   
    16     7    20 1   
    17     8    12 1   
    18     8    21 1   
    19     8    22 1   
    20     8    23 1   
    21     9    13 1   
    22     9    24 1   
    23    10    13 2   
    24    11    13 2   
@<TRIPOS>SUBSTRUCTURE
     1 MOL         1 TEMP              0 ****  ****    0 ROOT
