@<TRIPOS>MOLECULE
MOL
   23    23     1     0     0
SMALL
No Charge or Current Charge


@<TRIPOS>ATOM
 1  C1  1.340000  1.498000  0.064000  C.ar  1  MOL  -0.147208 
 2  C2  0.594000  -0.695000  -0.583000  C.ar  1  MOL  -0.147208 
 3  C3  2.607000  0.997000  0.356000  C.ar  1  MOL  -0.328922 
 4  C4  1.855000  -1.211000  -0.294000  C.ar  1  MOL  -0.328922 
 5  C5  0.316000  0.668000  -0.407000  C.ar  1  MOL  0.120192 
 6  C6  2.867000  -0.365000  0.178000  C.ar  1  MOL  0.401505 
 7  C7  -2.892000  -0.276000  0.056000  C.2  1  MOL  0.510929 
 8  C8  -3.829000  -0.619000  1.205000  C.3  1  MOL  -0.313908 
 9  C9  -1.066000  1.214000  -0.709000  C.3  1  MOL  -0.221793 
 10  N1  -2.088000  0.813000  0.258000  N.am  1  MOL  -0.353167 
 11  O1  -2.876000  -0.932000  -0.981000  O.2  1  MOL  -0.514977 
 12  O2  4.124000  -0.813000  0.477000  O.3  1  MOL  -0.599344 
 13  H1  1.148000  2.561000  0.201000  H  1  MOL  0.151577 
 14  H2  -0.188000  -1.353000  -0.952000  H  1  MOL  0.151577 
 15  H3  3.401000  1.642000  0.718000  H  1  MOL  0.191490 
 16  H4  2.058000  -2.271000  -0.439000  H  1  MOL  0.191490 
 17  H5  -4.849000  -0.687000  0.816000  H  1  MOL  0.111818 
 18  H6  -3.563000  -1.606000  1.597000  H  1  MOL  0.116842 
 19  H7  -3.808000  0.105000  2.026000  H  1  MOL  0.089295 
 20  H8  -1.038000  2.309000  -0.744000  H  1  MOL  0.124857 
 21  H9  -1.420000  0.854000  -1.678000  H  1  MOL  0.124857 
 22  H10  -2.039000  1.210000  1.186000  H  1  MOL  0.256949 
 23  H11  4.168000  -1.766000  0.301000  H  1  MOL  0.412070 
@<TRIPOS>BOND
     1     1     3 ar  
     2     1     5 ar  
     3     1    13 1   
     4     2     4 ar  
     5     2     5 ar  
     6     2    14 1   
     7     3     6 ar  
     8     3    15 1   
     9     4     6 ar  
    10     4    16 1   
    11     5     9 1   
    12     6    12 1   
    13     7     8 1   
    14     7    10 am  
    15     7    11 2   
    16     8    17 1   
    17     8    18 1   
    18     8    19 1   
    19     9    10 1   
    20     9    20 1   
    21     9    21 1   
    22    10    22 1   
    23    12    23 1   
@<TRIPOS>SUBSTRUCTURE
     1 MOL         1 TEMP              0 ****  ****    0 ROOT
