@<TRIPOS>MOLECULE
MOL
   23    23     1     0     0
SMALL
No Charge or Current Charge


@<TRIPOS>ATOM
      1 C1           1.3400     1.4980     0.0640 C.ar       1 MOL       0.000000
      2 C2           0.5940    -0.6950    -0.5830 C.ar       1 MOL       0.000000
      3 C3           2.6070     0.9970     0.3560 C.ar       1 MOL       0.000000
      4 C4           1.8550    -1.2110    -0.2940 C.ar       1 MOL       0.000000
      5 C5           0.3160     0.6680    -0.4070 C.ar       1 MOL       0.000000
      6 C6           2.8670    -0.3650     0.1780 C.ar       1 MOL       0.000000
      7 C7          -2.8920    -0.2760     0.0560 C.2        1 MOL       0.000000
      8 C8          -3.8290    -0.6190     1.2050 C.3        1 MOL       0.000000
      9 C9          -1.0660     1.2140    -0.7090 C.3        1 MOL       0.000000
     10 N1          -2.0880     0.8130     0.2580 N.am       1 MOL       0.000000
     11 O1          -2.8760    -0.9320    -0.9810 O.2        1 MOL       0.000000
     12 O2           4.1240    -0.8130     0.4770 O.3        1 MOL       0.000000
     13 H1           1.1480     2.5610     0.2010 H          1 MOL       0.000000
     14 H2          -0.1880    -1.3530    -0.9520 H          1 MOL       0.000000
     15 H3           3.4010     1.6420     0.7180 H          1 MOL       0.000000
     16 H4           2.0580    -2.2710    -0.4390 H          1 MOL       0.000000
     17 H5          -4.8490    -0.6870     0.8160 H          1 MOL       0.000000
     18 H6          -3.5630    -1.6060     1.5970 H          1 MOL       0.000000
     19 H7          -3.8080     0.1050     2.0260 H          1 MOL       0.000000
     20 H8          -1.0380     2.3090    -0.7440 H          1 MOL       0.000000
     21 H9          -1.4200     0.8540    -1.6780 H          1 MOL       0.000000
     22 H10         -2.0390     1.2100     1.1860 H          1 MOL       0.000000
     23 H11          4.1680    -1.7660     0.3010 H          1 MOL       0.000000
@<TRIPOS>BOND
     1     1     3 ar  
     2     1     5 ar  
     3     1    13 1   
     4     2     4 ar  
     5     2     5 ar  
     6     2    14 1   
     7     3     6 ar  
     8     3    15 1   
     9     4     6 ar  
    10     4    16 1   
    11     5     9 1   
    12     6    12 1   
    13     7     8 1   
    14     7    10 am  
    15     7    11 2   
    16     8    17 1   
    17     8    18 1   
    18     8    19 1   
    19     9    10 1   
    20     9    20 1   
    21     9    21 1   
    22    10    22 1   
    23    12    23 1   
@<TRIPOS>SUBSTRUCTURE
     1 MOL         1 TEMP              0 ****  ****    0 ROOT
