@<TRIPOS>MOLECULE
MOL
   25    25     1     0     0
SMALL
No Charge or Current Charge


@<TRIPOS>ATOM
      1 C1          -0.4760    -0.6550    -0.4070 C.ar       1 MOL       0.000000
      2 C2          -1.3310     1.5490     0.0190 C.ar       1 MOL       0.000000
      3 C3          -1.7410    -1.1580    -0.1860 C.ar       1 MOL       0.000000
      4 C4          -2.5820     0.9970     0.2340 C.ar       1 MOL       0.000000
      5 C5          -0.2440     0.7290    -0.3060 C.ar       1 MOL       0.000000
      6 C6           2.8660    -0.3460     0.0360 C.2        1 MOL       0.000000
      7 C7           4.0790    -0.6250     0.8970 C.3        1 MOL       0.000000
      8 C8          -4.1140    -0.9260     0.3840 C.3        1 MOL       0.000000
      9 C9           1.1400     1.3000    -0.5730 C.3        1 MOL       0.000000
     10 N1          -2.7770    -0.3370     0.1310 N.pl3      1 MOL       0.000000
     11 N2           2.1580     0.7970     0.3370 N.am       1 MOL       0.000000
     12 O1           2.5170    -1.0730    -0.8880 O.2        1 MOL       0.000000
     13 H1           0.3420    -1.3190    -0.6710 H          1 MOL       0.000000
     14 H2          -1.2190     2.6250     0.1040 H          1 MOL       0.000000
     15 H3          -1.9730    -2.2140    -0.2590 H          1 MOL       0.000000
     16 H4          -3.4490     1.5940     0.4880 H          1 MOL       0.000000
     17 H5           4.1120    -1.6920     1.1280 H          1 MOL       0.000000
     18 H6           4.9810    -0.3850     0.3220 H          1 MOL       0.000000
     19 H7           4.0960    -0.0490     1.8270 H          1 MOL       0.000000
     20 H8          -4.1010    -1.4550     1.3400 H          1 MOL       0.000000
     21 H9          -4.8560    -0.1290     0.4140 H          1 MOL       0.000000
     22 H10         -4.3570    -1.6190    -0.4230 H          1 MOL       0.000000
     23 H11          1.4290     1.0250    -1.5950 H          1 MOL       0.000000
     24 H12          1.1120     2.3900    -0.5060 H          1 MOL       0.000000
     25 H13          2.4900     1.4100     1.0690 H          1 MOL       0.000000
@<TRIPOS>BOND
     1     1     3 ar  
     2     1     5 ar  
     3     1    13 1   
     4     2     4 ar  
     5     2     5 ar  
     6     2    14 1   
     7     3    10 2   
     8     3    15 1   
     9     4    10 1   
    10     4    16 1   
    11     5     9 1   
    12     6     7 1   
    13     6    11 am  
    14     6    12 2   
    15     7    17 1   
    16     7    18 1   
    17     7    19 1   
    18     8    10 1   
    19     8    20 1   
    20     8    21 1   
    21     8    22 1   
    22     9    11 1   
    23     9    23 1   
    24     9    24 1   
    25    11    25 1   
@<TRIPOS>SUBSTRUCTURE
     1 MOL         1 TEMP              0 ****  ****    0 ROOT
