@<TRIPOS>MOLECULE
*****
 31 31 0 0 0
SMALL
GASTEIGER

@<TRIPOS>ATOM
      1 C           4.1935    3.2709    0.9108 C.3     1  UNL1        0.0030
      2 N           3.9042    2.1835   -0.0181 N.am    1  UNL1        0.3030
      3 C           2.6098    2.2016   -0.6905 C.3     1  UNL1        0.0030
      4 C           4.9367    1.3183   -0.3432 C.2     1  UNL1        0.2635
      5 O           6.0447    1.3583    0.1966 O.2     1  UNL1        0.2694
      6 C           4.6821    0.1942   -1.3695 C.3     1  UNL1        0.0574
      7 H           3.6174    0.0066   -1.5126 H       1  UNL1        0.0952
      8 N           5.2288   -1.0909   -0.7701 N.4     1  UNL1        0.2276
      9 H           5.0005   -1.9260   -1.3192 H       1  UNL1        0.2002
     10 H           6.2530   -1.0099   -0.6711 H       1  UNL1        0.2002
     11 H           4.8765   -1.2126    0.1894 H       1  UNL1        0.2002
     12 C           5.4035    0.4270   -2.7117 C.3     1  UNL1        0.0241
     13 C           5.0008    1.6785   -3.4528 C.ar    1  UNL1        0.0415
     14 C           5.3159    2.9478   -2.9417 C.ar    1  UNL1        0.0584
     15 C           4.8838    4.1066   -3.5846 C.ar    1  UNL1        0.0615
     16 C           4.2072    4.0162   -4.7952 C.ar    1  UNL1        0.0617
     17 C           3.9546    2.7664   -5.3561 C.ar    1  UNL1        0.0615
     18 C           4.3310    1.6016   -4.6815 C.ar    1  UNL1        0.0584
     19 H           3.3288    3.9279    1.0375 H       1  UNL1        0.0428
     20 H           5.0373    3.8543    0.5299 H       1  UNL1        0.0428
     21 H           4.4657    2.8459    1.8815 H       1  UNL1        0.0428
     22 H           1.9800    3.0171   -0.3285 H       1  UNL1        0.0428
     23 H           2.1024    1.2519   -0.4998 H       1  UNL1        0.0428
     24 H           2.7580    2.3140   -1.7658 H       1  UNL1        0.0428
     25 H           5.2061   -0.4436   -3.3536 H       1  UNL1        0.0373
     26 H           6.4921    0.4489   -2.5721 H       1  UNL1        0.0373
     27 H           5.8994    3.0667   -2.0309 H       1  UNL1        0.0620
     28 H           5.0910    5.0810   -3.1475 H       1  UNL1        0.0618
     29 H           3.8975    4.9214   -5.3126 H       1  UNL1        0.0618
     30 H           3.4673    2.7034   -6.3270 H       1  UNL1        0.0618
     31 H           4.1095    0.6431   -5.1470 H       1  UNL1        0.0620
@<TRIPOS>BOND
     1     1     2    1
     2     2     3    1
     3     2     4   am
     4     4     5    2
     5     6     8    1
     6     8     9    1
     7     8    10    1
     8     8    11    1
     9     6    12    1
    10    12    13    1
    11    13    14   ar
    12    14    15   ar
    13    15    16   ar
    14    16    17   ar
    15    17    18   ar
    16    13    18   ar
    17     6     7    1
    18     6     4    1
    19     1    19    1
    20     1    20    1
    21     1    21    1
    22     3    22    1
    23     3    23    1
    24     3    24    1
    25    12    25    1
    26    12    26    1
    27    14    27    1
    28    15    28    1
    29    16    29    1
    30    17    30    1
    31    18    31    1
