@<TRIPOS>MOLECULE
*****
 23 23 0 0 0
SMALL
GASTEIGER

@<TRIPOS>ATOM
      1 C           1.0527   -0.0432    0.1023 C.3     1  UNL1        0.0122
      2 C           2.5542   -0.0934    0.0436 C.2     1  UNL1        0.2102
      3 O           3.1637   -0.7904   -0.7604 O.2     1  UNL1        0.2761
      4 N           3.1651    0.7243    0.9623 N.am    1  UNL1        0.3114
      5 C           4.6057    0.7977    1.0483 C.3     1  UNL1        0.0368
      6 C           5.0544    1.8134    2.0675 C.ar    1  UNL1        0.0301
      7 C           4.6311    3.1499    1.9755 C.ar    1  UNL1        0.0536
      8 C           5.0765    4.1047    2.8920 C.ar    1  UNL1        0.0199
      9 C           5.9499    3.7237    3.9042 C.ar    1  UNL1        0.1169
     10 O           6.4293    4.6281    4.8045 O.3     1  UNL1        0.5068
     11 C           6.3722    2.4053    4.0211 C.ar    1  UNL1        0.0199
     12 C           5.9323    1.4519    3.1000 C.ar    1  UNL1        0.0536
     13 H           0.6332   -0.7226   -0.6451 H       1  UNL1        0.0322
     14 H           0.7086    0.9724   -0.1127 H       1  UNL1        0.0322
     15 H           0.7063   -0.3509    1.0925 H       1  UNL1        0.0322
     16 H           2.6100    1.2009    1.6605 H       1  UNL1        0.1490
     17 H           5.0054    1.0632    0.0624 H       1  UNL1        0.0512
     18 H           4.9781   -0.2040    1.2931 H       1  UNL1        0.0512
     19 H           3.9561    3.4537    1.1778 H       1  UNL1        0.0622
     20 H           4.7377    5.1312    2.7966 H       1  UNL1        0.0654
     21 H           6.1521    5.5165    4.5265 H       1  UNL1        0.2921
     22 H           7.0529    2.1228    4.8195 H       1  UNL1        0.0654
     23 H           6.2895    0.4281    3.1909 H       1  UNL1        0.0622
@<TRIPOS>BOND
     1     1     2    1
     2     2     3    2
     3     2     4   am
     4     4     5    1
     5     5     6    1
     6     6     7   ar
     7     7     8   ar
     8     8     9   ar
     9     9    10    1
    10     9    11   ar
    11    11    12   ar
    12     6    12   ar
    13     1    13    1
    14     1    14    1
    15     1    15    1
    16     4    16    1
    17     5    17    1
    18     5    18    1
    19     7    19    1
    20     8    20    1
    21    10    21    1
    22    11    22    1
    23    12    23    1
