@<TRIPOS>MOLECULE
*****
 26 25 0 0 0
SMALL
GASTEIGER

@<TRIPOS>ATOM
      1 C           1.0492    0.0648    0.0796 C.3     1  UNL1        0.0396
      2 C           2.5689   -0.0559   -0.0217 C.3     1  UNL1        0.1017
      3 H           2.9512    0.3916    0.9067 H       1  UNL1        0.0570
      4 N           2.9847   -1.4730    0.0206 N.3     1  UNL1        0.1832
      5 S           4.6205   -1.8592   -0.0270 S.O2    1  UNL1        0.0272
      6 C           5.2220   -1.2338    1.5297 C.3     1  UNL1        0.0705
      7 O           4.6649   -3.3041    0.0130 O.2     1  UNL1        0.1585
      8 O           5.2372   -1.1359   -1.1128 O.2     1  UNL1        0.1585
      9 C           3.1395    0.7983   -1.1568 C.2     1  UNL1        0.2334
     10 O           3.8338    1.7747   -0.8451 O.2     1  UNL1        0.2739
     11 N           2.8576    0.4965   -2.4828 N.am    1  UNL1        0.3063
     12 C           2.0292   -0.5905   -2.9769 C.3     1  UNL1        0.0029
     13 C           3.4733    1.3100   -3.5197 C.3     1  UNL1        0.0029
     14 H           0.6763   -0.4513    0.9706 H       1  UNL1        0.0250
     15 H           0.5181   -0.3593   -0.7750 H       1  UNL1        0.0250
     16 H           0.7533    1.1177    0.1452 H       1  UNL1        0.0250
     17 H           2.4491   -2.1388   -0.5329 H       1  UNL1        0.1484
     18 H           4.6304   -1.6699    2.3366 H       1  UNL1        0.0479
     19 H           5.1539   -0.1450    1.5320 H       1  UNL1        0.0479
     20 H           6.2668   -1.5355    1.6316 H       1  UNL1        0.0479
     21 H           1.6821   -1.2644   -2.2012 H       1  UNL1        0.0428
     22 H           2.6046   -1.1807   -3.6953 H       1  UNL1        0.0428
     23 H           1.1579   -0.1563   -3.4771 H       1  UNL1        0.0428
     24 H           4.1305    2.0848   -3.1184 H       1  UNL1        0.0428
     25 H           2.6817    1.7854   -4.1061 H       1  UNL1        0.0428
     26 H           4.0647    0.6575   -4.1697 H       1  UNL1        0.0428
@<TRIPOS>BOND
     1     1     2    1
     2     2     3    1
     3     2     4    1
     4     4     5    1
     5     5     6    1
     6     5     7    2
     7     5     8    2
     8     2     9    1
     9     9    10    2
    10     9    11   am
    11    11    12    1
    12    11    13    1
    13     1    14    1
    14     1    15    1
    15     1    16    1
    16     4    17    1
    17     6    18    1
    18     6    19    1
    19     6    20    1
    20    12    21    1
    21    12    22    1
    22    12    23    1
    23    13    24    1
    24    13    25    1
    25    13    26    1
