@<TRIPOS>MOLECULE
MOL
   25    25     1     0     0
SMALL
No Charge or Current Charge


@<TRIPOS>ATOM
 1  C1  -1.546000  1.854000  0.095000  C.ar  1  MOL  -0.278609 
 2  C2  -2.721000  1.140000  0.343000  C.ar  1  MOL  -0.115248 
 3  C3  -0.394000  1.191000  -0.322000  C.ar  1  MOL  -0.083163 
 4  C4  -1.595000  -0.901000  -0.242000  C.ar  1  MOL  -0.159854 
 5  C5  -2.765000  -0.248000  0.173000  C.ar  1  MOL  0.024516 
 6  C6  -0.412000  -0.201000  -0.492000  C.ar  1  MOL  0.081986 
 7  C7  2.938000  -0.052000  0.070000  C.2  1  MOL  0.510929 
 8  C8  -4.042000  -1.023000  0.404000  C.3  1  MOL  -0.181288 
 9  C9  3.888000  -0.133000  1.257000  C.3  1  MOL  -0.313908 
 10  C10  0.846000  -0.932000  -0.926000  C.3  1  MOL  -0.189755 
 11  N1  1.898000  -0.941000  0.088000  N.am  1  MOL  -0.353167 
 12  O1  3.109000  0.753000  -0.840000  O.2  1  MOL  -0.514977 
 13  H1  -1.532000  2.932000  0.227000  H  1  MOL  0.172495 
 14  H2  -3.615000  1.668000  0.669000  H  1  MOL  0.134619 
 15  H3  0.522000  1.741000  -0.520000  H  1  MOL  0.121963 
 16  H4  -1.612000  -1.982000  -0.375000  H  1  MOL  0.137701 
 17  H5  -4.610000  -1.143000  -0.529000  H  1  MOL  0.066149 
 18  H6  -3.839000  -2.028000  0.789000  H  1  MOL  0.066149 
 19  H7  -4.697000  -0.513000  1.118000  H  1  MOL  0.066149 
 20  H8  4.909000  -0.241000  0.880000  H  1  MOL  0.111818 
 21  H9  3.843000  0.809000  1.811000  H  1  MOL  0.116842 
 22  H10  3.671000  -0.959000  1.942000  H  1  MOL  0.089295 
 23  H11  0.607000  -1.968000  -1.191000  H  1  MOL  0.116205 
 24  H12  1.287000  -0.450000  -1.802000  H  1  MOL  0.116205 
 25  H13  1.732000  -1.473000  0.932000  H  1  MOL  0.256949 
@<TRIPOS>BOND
     1     1     2 ar  
     2     1     3 ar  
     3     1    13 1   
     4     2     5 ar  
     5     2    14 1   
     6     3     6 ar  
     7     3    15 1   
     8     4     5 ar  
     9     4     6 ar  
    10     4    16 1   
    11     5     8 1   
    12     6    10 1   
    13     7     9 1   
    14     7    11 am  
    15     7    12 2   
    16     8    17 1   
    17     8    18 1   
    18     8    19 1   
    19     9    20 1   
    20     9    21 1   
    21     9    22 1   
    22    10    11 1   
    23    10    23 1   
    24    10    24 1   
    25    11    25 1   
@<TRIPOS>SUBSTRUCTURE
     1 MOL         1 TEMP              0 ****  ****    0 ROOT
