@<TRIPOS>MOLECULE
MOL
   25    25     1     0     0
SMALL
No Charge or Current Charge


@<TRIPOS>ATOM
      1 C1          -1.5460     1.8540     0.0950 C.ar       1 MOL       0.000000
      2 C2          -2.7210     1.1400     0.3430 C.ar       1 MOL       0.000000
      3 C3          -0.3940     1.1910    -0.3220 C.ar       1 MOL       0.000000
      4 C4          -1.5950    -0.9010    -0.2420 C.ar       1 MOL       0.000000
      5 C5          -2.7650    -0.2480     0.1730 C.ar       1 MOL       0.000000
      6 C6          -0.4120    -0.2010    -0.4920 C.ar       1 MOL       0.000000
      7 C7           2.9380    -0.0520     0.0700 C.2        1 MOL       0.000000
      8 C8          -4.0420    -1.0230     0.4040 C.3        1 MOL       0.000000
      9 C9           3.8880    -0.1330     1.2570 C.3        1 MOL       0.000000
     10 C10          0.8460    -0.9320    -0.9260 C.3        1 MOL       0.000000
     11 N1           1.8980    -0.9410     0.0880 N.am       1 MOL       0.000000
     12 O1           3.1090     0.7530    -0.8400 O.2        1 MOL       0.000000
     13 H1          -1.5320     2.9320     0.2270 H          1 MOL       0.000000
     14 H2          -3.6150     1.6680     0.6690 H          1 MOL       0.000000
     15 H3           0.5220     1.7410    -0.5200 H          1 MOL       0.000000
     16 H4          -1.6120    -1.9820    -0.3750 H          1 MOL       0.000000
     17 H5          -4.6100    -1.1430    -0.5290 H          1 MOL       0.000000
     18 H6          -3.8390    -2.0280     0.7890 H          1 MOL       0.000000
     19 H7          -4.6970    -0.5130     1.1180 H          1 MOL       0.000000
     20 H8           4.9090    -0.2410     0.8800 H          1 MOL       0.000000
     21 H9           3.8430     0.8090     1.8110 H          1 MOL       0.000000
     22 H10          3.6710    -0.9590     1.9420 H          1 MOL       0.000000
     23 H11          0.6070    -1.9680    -1.1910 H          1 MOL       0.000000
     24 H12          1.2870    -0.4500    -1.8020 H          1 MOL       0.000000
     25 H13          1.7320    -1.4730     0.9320 H          1 MOL       0.000000
@<TRIPOS>BOND
     1     1     2 ar  
     2     1     3 ar  
     3     1    13 1   
     4     2     5 ar  
     5     2    14 1   
     6     3     6 ar  
     7     3    15 1   
     8     4     5 ar  
     9     4     6 ar  
    10     4    16 1   
    11     5     8 1   
    12     6    10 1   
    13     7     9 1   
    14     7    11 am  
    15     7    12 2   
    16     8    17 1   
    17     8    18 1   
    18     8    19 1   
    19     9    20 1   
    20     9    21 1   
    21     9    22 1   
    22    10    11 1   
    23    10    23 1   
    24    10    24 1   
    25    11    25 1   
@<TRIPOS>SUBSTRUCTURE
     1 MOL         1 TEMP              0 ****  ****    0 ROOT
