@<TRIPOS>MOLECULE
MOL
   42    42     1     0     0
SMALL
No Charge or Current Charge


@<TRIPOS>ATOM
 1  C1  0.760000  1.483000  -0.584000  C.2  1  MOL  0.636107 
 2  C2  -4.491000  -1.345000  0.415000  C.3  1  MOL  -0.006084 
 3  C3  -4.166000  -0.919000  -1.025000  C.3  1  MOL  0.043686 
 4  C4  -3.238000  -1.313000  1.304000  C.3  1  MOL  0.043686 
 5  C5  -3.480000  0.457000  -1.056000  C.3  1  MOL  0.008043 
 6  C6  -2.545000  0.060000  1.256000  C.3  1  MOL  0.008043 
 7  C7  -2.206000  0.521000  -0.182000  C.3  1  MOL  0.195024 
 8  C8  1.193000  3.795000  0.015000  C.3  1  MOL  -0.071473 
 9  C9  0.844000  2.140000  1.834000  C.3  1  MOL  -0.089282 
 10  C10  2.570000  -3.106000  0.094000  C.3  1  MOL  -0.412669 
 11  C11  -1.042000  -0.266000  -0.823000  C.3  1  MOL  -0.096932 
 12  C12  0.349000  0.037000  -0.227000  C.3  1  MOL  -0.215488 
 13  N1  1.330000  -0.883000  -0.850000  N.3  1  MOL  -0.497998 
 14  N2  0.905000  2.416000  0.399000  N.am  1  MOL  -0.344286 
 15  O1  0.926000  1.736000  -1.780000  O.2  1  MOL  -0.560519 
 16  O2  2.551000  -0.821000  1.419000  O.2  1  MOL  -0.518639 
 17  O3  3.895000  -0.978000  -0.753000  O.2  1  MOL  -0.504040 
 18  S1  2.709000  -1.311000  0.040000  S.o2  1  MOL  0.947437 
 19  H1  -5.244000  -0.659000  0.831000  H  1  MOL  -0.010166 
 20  H2  -4.940000  -2.346000  0.426000  H  1  MOL  -0.010166 
 21  H3  -3.516000  -1.672000  -1.491000  H  1  MOL  -0.013139 
 22  H4  -5.082000  -0.889000  -1.628000  H  1  MOL  -0.013139 
 23  H5  -3.502000  -1.556000  2.341000  H  1  MOL  -0.013139 
 24  H6  -2.541000  -2.097000  0.976000  H  1  MOL  -0.013139 
 25  H7  -3.237000  0.740000  -2.089000  H  1  MOL  -0.022718 
 26  H8  -4.192000  1.210000  -0.688000  H  1  MOL  -0.022718 
 27  H9  -3.217000  0.806000  1.706000  H  1  MOL  -0.022718 
 28  H10  -1.645000  0.045000  1.885000  H  1  MOL  -0.022718 
 29  H11  -1.902000  1.577000  -0.135000  H  1  MOL  -0.025112 
 30  H12  0.451000  4.472000  0.455000  H  1  MOL  0.087465 
 31  H13  1.158000  3.866000  -1.071000  H  1  MOL  0.084069 
 32  H14  2.189000  4.092000  0.366000  H  1  MOL  0.088028 
 33  H15  1.290000  1.173000  2.070000  H  1  MOL  0.094118 
 34  H16  -0.183000  2.184000  2.220000  H  1  MOL  0.067267 
 35  H17  1.431000  2.904000  2.351000  H  1  MOL  0.084095 
 36  H18  3.432000  -3.478000  0.653000  H  1  MOL  0.187843 
 37  H19  1.641000  -3.373000  0.600000  H  1  MOL  0.155917 
 38  H20  2.582000  -3.489000  -0.927000  H  1  MOL  0.144151 
 39  H21  -1.201000  -1.346000  -0.738000  H  1  MOL  0.049342 
 40  H22  -0.995000  -0.033000  -1.893000  H  1  MOL  0.049342 
 41  H23  0.353000  -0.162000  0.842000  H  1  MOL  0.186162 
 42  H24  1.631000  -0.502000  -1.750000  H  1  MOL  0.346457 
@<TRIPOS>BOND
     1     1    12 1   
     2     1    14 am  
     3     1    15 2   
     4     2     3 1   
     5     2     4 1   
     6     2    19 1   
     7     2    20 1   
     8     3     5 1   
     9     3    21 1   
    10     3    22 1   
    11     4     6 1   
    12     4    23 1   
    13     4    24 1   
    14     5     7 1   
    15     5    25 1   
    16     5    26 1   
    17     6     7 1   
    18     6    27 1   
    19     6    28 1   
    20     7    11 1   
    21     7    29 1   
    22     8    14 1   
    23     8    30 1   
    24     8    31 1   
    25     8    32 1   
    26     9    14 1   
    27     9    33 1   
    28     9    34 1   
    29     9    35 1   
    30    10    18 1   
    31    10    36 1   
    32    10    37 1   
    33    10    38 1   
    34    11    12 1   
    35    11    39 1   
    36    11    40 1   
    37    12    13 1   
    38    12    41 1   
    39    13    18 1   
    40    13    42 1   
    41    16    18 2   
    42    17    18 2   
@<TRIPOS>SUBSTRUCTURE
     1 MOL         1 TEMP              0 ****  ****    0 ROOT
