@<TRIPOS>MOLECULE
MOL
   42    42     1     0     0
SMALL
No Charge or Current Charge


@<TRIPOS>ATOM
      1 C1           0.7600     1.4830    -0.5840 C.2        1 MOL       0.000000
      2 C2          -4.4910    -1.3450     0.4150 C.3        1 MOL       0.000000
      3 C3          -4.1660    -0.9190    -1.0250 C.3        1 MOL       0.000000
      4 C4          -3.2380    -1.3130     1.3040 C.3        1 MOL       0.000000
      5 C5          -3.4800     0.4570    -1.0560 C.3        1 MOL       0.000000
      6 C6          -2.5450     0.0600     1.2560 C.3        1 MOL       0.000000
      7 C7          -2.2060     0.5210    -0.1820 C.3        1 MOL       0.000000
      8 C8           1.1930     3.7950     0.0150 C.3        1 MOL       0.000000
      9 C9           0.8440     2.1400     1.8340 C.3        1 MOL       0.000000
     10 C10          2.5700    -3.1060     0.0940 C.3        1 MOL       0.000000
     11 C11         -1.0420    -0.2660    -0.8230 C.3        1 MOL       0.000000
     12 C12          0.3490     0.0370    -0.2270 C.3        1 MOL       0.000000
     13 N1           1.3300    -0.8830    -0.8500 N.3        1 MOL       0.000000
     14 N2           0.9050     2.4160     0.3990 N.am       1 MOL       0.000000
     15 O1           0.9260     1.7360    -1.7800 O.2        1 MOL       0.000000
     16 O2           2.5510    -0.8210     1.4190 O.2        1 MOL       0.000000
     17 O3           3.8950    -0.9780    -0.7530 O.2        1 MOL       0.000000
     18 S1           2.7090    -1.3110     0.0400 S.o2       1 MOL       0.000000
     19 H1          -5.2440    -0.6590     0.8310 H          1 MOL       0.000000
     20 H2          -4.9400    -2.3460     0.4260 H          1 MOL       0.000000
     21 H3          -3.5160    -1.6720    -1.4910 H          1 MOL       0.000000
     22 H4          -5.0820    -0.8890    -1.6280 H          1 MOL       0.000000
     23 H5          -3.5020    -1.5560     2.3410 H          1 MOL       0.000000
     24 H6          -2.5410    -2.0970     0.9760 H          1 MOL       0.000000
     25 H7          -3.2370     0.7400    -2.0890 H          1 MOL       0.000000
     26 H8          -4.1920     1.2100    -0.6880 H          1 MOL       0.000000
     27 H9          -3.2170     0.8060     1.7060 H          1 MOL       0.000000
     28 H10         -1.6450     0.0450     1.8850 H          1 MOL       0.000000
     29 H11         -1.9020     1.5770    -0.1350 H          1 MOL       0.000000
     30 H12          0.4510     4.4720     0.4550 H          1 MOL       0.000000
     31 H13          1.1580     3.8660    -1.0710 H          1 MOL       0.000000
     32 H14          2.1890     4.0920     0.3660 H          1 MOL       0.000000
     33 H15          1.2900     1.1730     2.0700 H          1 MOL       0.000000
     34 H16         -0.1830     2.1840     2.2200 H          1 MOL       0.000000
     35 H17          1.4310     2.9040     2.3510 H          1 MOL       0.000000
     36 H18          3.4320    -3.4780     0.6530 H          1 MOL       0.000000
     37 H19          1.6410    -3.3730     0.6000 H          1 MOL       0.000000
     38 H20          2.5820    -3.4890    -0.9270 H          1 MOL       0.000000
     39 H21         -1.2010    -1.3460    -0.7380 H          1 MOL       0.000000
     40 H22         -0.9950    -0.0330    -1.8930 H          1 MOL       0.000000
     41 H23          0.3530    -0.1620     0.8420 H          1 MOL       0.000000
     42 H24          1.6310    -0.5020    -1.7500 H          1 MOL       0.000000
@<TRIPOS>BOND
     1     1    12 1   
     2     1    14 am  
     3     1    15 2   
     4     2     3 1   
     5     2     4 1   
     6     2    19 1   
     7     2    20 1   
     8     3     5 1   
     9     3    21 1   
    10     3    22 1   
    11     4     6 1   
    12     4    23 1   
    13     4    24 1   
    14     5     7 1   
    15     5    25 1   
    16     5    26 1   
    17     6     7 1   
    18     6    27 1   
    19     6    28 1   
    20     7    11 1   
    21     7    29 1   
    22     8    14 1   
    23     8    30 1   
    24     8    31 1   
    25     8    32 1   
    26     9    14 1   
    27     9    33 1   
    28     9    34 1   
    29     9    35 1   
    30    10    18 1   
    31    10    36 1   
    32    10    37 1   
    33    10    38 1   
    34    11    12 1   
    35    11    39 1   
    36    11    40 1   
    37    12    13 1   
    38    12    41 1   
    39    13    18 1   
    40    13    42 1   
    41    16    18 2   
    42    17    18 2   
@<TRIPOS>SUBSTRUCTURE
     1 MOL         1 TEMP              0 ****  ****    0 ROOT
