@<TRIPOS>MOLECULE
MOL
   41    41     1     0     0
SMALL
No Charge or Current Charge


@<TRIPOS>ATOM
 1  C1  3.571000  0.265000  0.010000  C.2  1  MOL  0.815531 
 2  C2  -0.875000  1.684000  -0.308000  C.2  1  MOL  0.636107 
 3  C3  -1.262000  -3.717000  -0.349000  C.3  1  MOL  -0.032958 
 4  C4  -1.936000  -2.620000  -1.184000  C.3  1  MOL  -0.066699 
 5  C5  -1.017000  -3.251000  1.094000  C.3  1  MOL  -0.066699 
 6  C6  -1.131000  -1.309000  -1.156000  C.3  1  MOL  -0.086530 
 7  C7  -0.213000  -1.940000  1.138000  C.3  1  MOL  -0.086530 
 8  C8  -0.896000  -0.839000  0.297000  C.3  1  MOL  0.086537 
 9  C9  -2.680000  3.297000  -0.451000  C.3  1  MOL  -0.071473 
 10  C10  -2.470000  1.937000  1.601000  C.3  1  MOL  -0.089282 
 11  C11  2.347000  1.177000  0.246000  C.3  1  MOL  -0.053960 
 12  C12  -0.142000  0.512000  0.401000  C.3  1  MOL  0.343868 
 13  N1  4.776000  0.813000  0.233000  N.am  1  MOL  -1.028738 
 14  N2  -1.942000  2.256000  0.275000  N.am  1  MOL  -0.344286 
 15  N3  1.180000  0.442000  -0.325000  N.4  1  MOL  -0.479685 
 16  O1  3.378000  -0.896000  -0.338000  O.2  1  MOL  -0.576248 
 17  O2  -0.436000  2.014000  -1.422000  O.2  1  MOL  -0.560519 
 18  H1  -1.879000  -4.623000  -0.350000  H  1  MOL  0.043989 
 19  H2  -0.304000  -3.992000  -0.812000  H  1  MOL  0.043989 
 20  H3  -2.058000  -2.947000  -2.222000  H  1  MOL  0.041585 
 21  H4  -2.947000  -2.429000  -0.796000  H  1  MOL  0.041585 
 22  H5  -1.981000  -3.098000  1.599000  H  1  MOL  0.041585 
 23  H6  -0.486000  -4.023000  1.663000  H  1  MOL  0.041585 
 24  H7  -0.166000  -1.485000  -1.656000  H  1  MOL  0.031856 
 25  H8  -1.645000  -0.533000  -1.735000  H  1  MOL  0.031856 
 26  H9  -0.100000  -1.602000  2.177000  H  1  MOL  0.031856 
 27  H10  0.802000  -2.136000  0.760000  H  1  MOL  0.031856 
 28  H11  -1.883000  -0.654000  0.743000  H  1  MOL  0.000399 
 29  H12  -3.730000  3.002000  -0.548000  H  1  MOL  0.087465 
 30  H13  -2.240000  3.424000  -1.439000  H  1  MOL  0.084069 
 31  H14  -2.627000  4.242000  0.101000  H  1  MOL  0.088028 
 32  H15  -2.577000  2.862000  2.177000  H  1  MOL  0.094118 
 33  H16  -1.811000  1.268000  2.152000  H  1  MOL  0.067267 
 34  H17  -3.457000  1.468000  1.517000  H  1  MOL  0.084095 
 35  H18  2.435000  2.153000  -0.237000  H  1  MOL  0.101764 
 36  H19  2.197000  1.325000  1.319000  H  1  MOL  0.101764 
 37  H20  0.077000  0.733000  1.449000  H  1  MOL  -0.011615 
 38  H21  4.905000  1.783000  0.485000  H  1  MOL  0.473038 
 39  H22  5.600000  0.237000  0.112000  H  1  MOL  0.473038 
 40  H23  0.935000  0.859000  -1.253000  H  1  MOL  0.318198 
 41  H24  1.527000  -0.530000  -0.451000  H  1  MOL  0.318198 
@<TRIPOS>BOND
     1     1    11 1   
     2     1    13 am  
     3     1    16 2   
     4     2    12 1   
     5     2    14 am  
     6     2    17 2   
     7     3     4 1   
     8     3     5 1   
     9     3    18 1   
    10     3    19 1   
    11     4     6 1   
    12     4    20 1   
    13     4    21 1   
    14     5     7 1   
    15     5    22 1   
    16     5    23 1   
    17     6     8 1   
    18     6    24 1   
    19     6    25 1   
    20     7     8 1   
    21     7    26 1   
    22     7    27 1   
    23     8    12 1   
    24     8    28 1   
    25     9    14 1   
    26     9    29 1   
    27     9    30 1   
    28     9    31 1   
    29    10    14 1   
    30    10    32 1   
    31    10    33 1   
    32    10    34 1   
    33    11    15 1   
    34    11    35 1   
    35    11    36 1   
    36    12    15 1   
    37    12    37 1   
    38    13    38 1   
    39    13    39 1   
    40    15    40 1   
    41    15    41 1   
@<TRIPOS>SUBSTRUCTURE
     1 MOL         1 TEMP              0 ****  ****    0 ROOT
