@<TRIPOS>MOLECULE
MOL
   41    41     1     0     0
SMALL
No Charge or Current Charge


@<TRIPOS>ATOM
      1 C1           3.5710     0.2650     0.0100 C.2        1 MOL       0.000000
      2 C2          -0.8750     1.6840    -0.3080 C.2        1 MOL       0.000000
      3 C3          -1.2620    -3.7170    -0.3490 C.3        1 MOL       0.000000
      4 C4          -1.9360    -2.6200    -1.1840 C.3        1 MOL       0.000000
      5 C5          -1.0170    -3.2510     1.0940 C.3        1 MOL       0.000000
      6 C6          -1.1310    -1.3090    -1.1560 C.3        1 MOL       0.000000
      7 C7          -0.2130    -1.9400     1.1380 C.3        1 MOL       0.000000
      8 C8          -0.8960    -0.8390     0.2970 C.3        1 MOL       0.000000
      9 C9          -2.6800     3.2970    -0.4510 C.3        1 MOL       0.000000
     10 C10         -2.4700     1.9370     1.6010 C.3        1 MOL       0.000000
     11 C11          2.3470     1.1770     0.2460 C.3        1 MOL       0.000000
     12 C12         -0.1420     0.5120     0.4010 C.3        1 MOL       0.000000
     13 N1           4.7760     0.8130     0.2330 N.am       1 MOL       0.000000
     14 N2          -1.9420     2.2560     0.2750 N.am       1 MOL       0.000000
     15 N3           1.1800     0.4420    -0.3250 N.4        1 MOL       0.000000
     16 O1           3.3780    -0.8960    -0.3380 O.2        1 MOL       0.000000
     17 O2          -0.4360     2.0140    -1.4220 O.2        1 MOL       0.000000
     18 H1          -1.8790    -4.6230    -0.3500 H          1 MOL       0.000000
     19 H2          -0.3040    -3.9920    -0.8120 H          1 MOL       0.000000
     20 H3          -2.0580    -2.9470    -2.2220 H          1 MOL       0.000000
     21 H4          -2.9470    -2.4290    -0.7960 H          1 MOL       0.000000
     22 H5          -1.9810    -3.0980     1.5990 H          1 MOL       0.000000
     23 H6          -0.4860    -4.0230     1.6630 H          1 MOL       0.000000
     24 H7          -0.1660    -1.4850    -1.6560 H          1 MOL       0.000000
     25 H8          -1.6450    -0.5330    -1.7350 H          1 MOL       0.000000
     26 H9          -0.1000    -1.6020     2.1770 H          1 MOL       0.000000
     27 H10          0.8020    -2.1360     0.7600 H          1 MOL       0.000000
     28 H11         -1.8830    -0.6540     0.7430 H          1 MOL       0.000000
     29 H12         -3.7300     3.0020    -0.5480 H          1 MOL       0.000000
     30 H13         -2.2400     3.4240    -1.4390 H          1 MOL       0.000000
     31 H14         -2.6270     4.2420     0.1010 H          1 MOL       0.000000
     32 H15         -2.5770     2.8620     2.1770 H          1 MOL       0.000000
     33 H16         -1.8110     1.2680     2.1520 H          1 MOL       0.000000
     34 H17         -3.4570     1.4680     1.5170 H          1 MOL       0.000000
     35 H18          2.4350     2.1530    -0.2370 H          1 MOL       0.000000
     36 H19          2.1970     1.3250     1.3190 H          1 MOL       0.000000
     37 H20          0.0770     0.7330     1.4490 H          1 MOL       0.000000
     38 H21          4.9050     1.7830     0.4850 H          1 MOL       0.000000
     39 H22          5.6000     0.2370     0.1120 H          1 MOL       0.000000
     40 H23          0.9350     0.8590    -1.2530 H          1 MOL       0.000000
     41 H24          1.5270    -0.5300    -0.4510 H          1 MOL       0.000000
@<TRIPOS>BOND
     1     1    11 1   
     2     1    13 am  
     3     1    16 2   
     4     2    12 1   
     5     2    14 am  
     6     2    17 2   
     7     3     4 1   
     8     3     5 1   
     9     3    18 1   
    10     3    19 1   
    11     4     6 1   
    12     4    20 1   
    13     4    21 1   
    14     5     7 1   
    15     5    22 1   
    16     5    23 1   
    17     6     8 1   
    18     6    24 1   
    19     6    25 1   
    20     7     8 1   
    21     7    26 1   
    22     7    27 1   
    23     8    12 1   
    24     8    28 1   
    25     9    14 1   
    26     9    29 1   
    27     9    30 1   
    28     9    31 1   
    29    10    14 1   
    30    10    32 1   
    31    10    33 1   
    32    10    34 1   
    33    11    15 1   
    34    11    35 1   
    35    11    36 1   
    36    12    15 1   
    37    12    37 1   
    38    13    38 1   
    39    13    39 1   
    40    15    40 1   
    41    15    41 1   
@<TRIPOS>SUBSTRUCTURE
     1 MOL         1 TEMP              0 ****  ****    0 ROOT
