@<TRIPOS>MOLECULE
MOL
   28    28     1     0     0
SMALL
No Charge or Current Charge


@<TRIPOS>ATOM
 1  C1  1.793000  1.376000  -0.043000  C.ar  1  MOL  -0.135503 
 2  C2  1.145000  -0.963000  -0.213000  C.ar  1  MOL  -0.135503 
 3  C3  0.474000  1.746000  -0.282000  C.ar  1  MOL  -0.156355 
 4  C4  -0.168000  -0.581000  -0.443000  C.ar  1  MOL  -0.156355 
 5  C5  2.141000  0.014000  -0.009000  C.ar  1  MOL  -0.021456 
 6  C6  -0.521000  0.780000  -0.483000  C.ar  1  MOL  0.028593 
 7  C7  3.529000  -0.387000  0.223000  C.2  1  MOL  0.584120 
 8  C8  -3.544000  -0.464000  0.169000  C.2  1  MOL  0.510929 
 9  C9  -4.650000  -0.706000  1.178000  C.3  1  MOL  -0.313908 
 10  C10  -1.961000  1.182000  -0.765000  C.3  1  MOL  0.112838 
 11  N1  4.310000  0.337000  1.023000  N.3  1  MOL  -0.760091 
 12  N2  -2.905000  0.748000  0.257000  N.am  1  MOL  -0.353167 
 13  N3  4.015000  -1.478000  -0.365000  N.3  1  MOL  -0.763998 
 14  O1  -3.236000  -1.287000  -0.687000  O.2  1  MOL  -0.514977 
 15  H1  2.554000  2.145000  0.061000  H  1  MOL  0.146810 
 16  H2  1.388000  -2.020000  -0.148000  H  1  MOL  0.146810 
 17  H3  0.220000  2.801000  -0.329000  H  1  MOL  0.181200 
 18  H4  -0.944000  -1.326000  -0.595000  H  1  MOL  0.181200 
 19  H5  -5.613000  -0.679000  0.657000  H  1  MOL  0.111818 
 20  H6  -4.534000  -1.709000  1.596000  H  1  MOL  0.116842 
 21  H7  -4.671000  0.025000  1.991000  H  1  MOL  0.089295 
 22  H8  -2.033000  2.268000  -0.867000  H  1  MOL  0.064390 
 23  H9  -2.274000  0.729000  -1.712000  H  1  MOL  0.064390 
 24  H10  3.906000  1.064000  1.597000  H  1  MOL  0.422288 
 25  H11  5.299000  0.153000  1.137000  H  1  MOL  0.422288 
 26  H12  -3.191000  1.411000  0.963000  H  1  MOL  0.256949 
 27  H13  3.483000  -1.938000  -1.091000  H  1  MOL  0.435276 
 28  H14  4.935000  -1.848000  -0.161000  H  1  MOL  0.435276 
@<TRIPOS>BOND
     1     1     3 ar  
     2     1     5 ar  
     3     1    15 1   
     4     2     4 ar  
     5     2     5 ar  
     6     2    16 1   
     7     3     6 ar  
     8     3    17 1   
     9     4     6 ar  
    10     4    18 1   
    11     5     7 1   
    12     6    10 1   
    13     7    11 2   
    14     7    13 1   
    15     8     9 1   
    16     8    12 am  
    17     8    14 2   
    18     9    19 1   
    19     9    20 1   
    20     9    21 1   
    21    10    12 1   
    22    10    22 1   
    23    10    23 1   
    24    11    24 1   
    25    11    25 1   
    26    12    26 1   
    27    13    27 1   
    28    13    28 1   
@<TRIPOS>SUBSTRUCTURE
     1 MOL         1 TEMP              0 ****  ****    0 ROOT
