@<TRIPOS>MOLECULE
*****
 22 22 0 0 0
SMALL
GASTEIGER

@<TRIPOS>ATOM
      1 C           1.1116    0.3707    1.0838 C.3     1  UNL1        0.0122
      2 C           2.6061    0.5051    1.1846 C.2     1  UNL1        0.2102
      3 O           3.1527    1.5653    1.4662 O.2     1  UNL1        0.2761
      4 N           3.2784   -0.6691    0.9436 N.am    1  UNL1        0.3114
      5 C           4.7165   -0.7743    1.0771 C.3     1  UNL1        0.0369
      6 C           5.1229   -1.7562    2.1511 C.ar    1  UNL1        0.0276
      7 C           6.3503   -2.4335    2.0509 C.ar    1  UNL1        0.0569
      8 C           6.7560   -3.3326    3.0430 C.ar    1  UNL1        0.0587
      9 C           5.9384   -3.5675    4.1461 C.ar    1  UNL1        0.0264
     10 C           4.7357   -2.8837    4.2607 C.ar    1  UNL1        0.1237
     11 F           3.9475   -3.1054    5.3208 F       1  UNL1        0.2055
     12 C           4.3329   -1.9726    3.2903 C.ar    1  UNL1        0.0218
     13 H           0.6444    1.3407    1.2768 H       1  UNL1        0.0322
     14 H           0.7523   -0.3460    1.8277 H       1  UNL1        0.0322
     15 H           0.8324    0.0383    0.0806 H       1  UNL1        0.0322
     16 H           2.7572   -1.5154    0.7572 H       1  UNL1        0.1490
     17 H           5.1655    0.2019    1.2864 H       1  UNL1        0.0512
     18 H           5.0816   -1.1218    0.1039 H       1  UNL1        0.0512
     19 H           7.0043   -2.2624    1.1972 H       1  UNL1        0.0621
     20 H           7.7096   -3.8474    2.9553 H       1  UNL1        0.0619
     21 H           6.2325   -4.2694    4.9194 H       1  UNL1        0.0646
     22 H           3.3992   -1.4385    3.4389 H       1  UNL1        0.0649
@<TRIPOS>BOND
     1     1     2    1
     2     2     3    2
     3     2     4   am
     4     4     5    1
     5     5     6    1
     6     6     7   ar
     7     7     8   ar
     8     8     9   ar
     9     9    10   ar
    10    10    11    1
    11    10    12   ar
    12     6    12   ar
    13     1    13    1
    14     1    14    1
    15     1    15    1
    16     4    16    1
    17     5    17    1
    18     5    18    1
    19     7    19    1
    20     8    20    1
    21     9    21    1
    22    12    22    1
