@<TRIPOS>MOLECULE
*****
 21 21 0 0 0
SMALL
GASTEIGER

@<TRIPOS>ATOM
      1 C           0.9076   -1.4012   -0.2621 C.3     1  UNL1        0.0122
      2 C           2.3900   -1.6258   -0.1779 C.2     1  UNL1        0.2102
      3 O           2.8798   -2.5019    0.5279 O.2     1  UNL1        0.2761
      4 N           3.1283   -0.7680   -0.9558 N.am    1  UNL1        0.3099
      5 C           4.5769   -0.8353   -1.0022 C.3     1  UNL1        0.0539
      6 C           5.1206   -1.7189   -2.1042 C.ar    1  UNL1        0.0583
      7 C           4.7931   -3.0734   -2.1575 C.ar    1  UNL1        0.0388
      8 C           5.4282   -3.8905   -3.0871 C.ar    1  UNL1        0.0586
      9 C           6.3681   -3.3384   -3.9456 C.ar    1  UNL1        0.0436
     10 C           6.6111   -1.9785   -3.8582 C.ar    1  UNL1        0.0279
     11 N           6.0104   -1.1593   -2.9651 N.ar    1  UNL1        0.2583
     12 H           0.3930   -2.1540    0.3426 H       1  UNL1        0.0322
     13 H           0.5713   -1.4939   -1.2980 H       1  UNL1        0.0322
     14 H           0.6624   -0.4092    0.1258 H       1  UNL1        0.0322
     15 H           2.6659   -0.1336   -1.5928 H       1  UNL1        0.1491
     16 H           4.9648   -1.1924   -0.0415 H       1  UNL1        0.0527
     17 H           4.9345    0.1913   -1.1412 H       1  UNL1        0.0527
     18 H           4.0785   -3.5034   -1.4631 H       1  UNL1        0.0636
     19 H           5.2047   -4.9529   -3.1193 H       1  UNL1        0.0619
     20 H           6.9028   -3.9545   -4.6591 H       1  UNL1        0.0633
     21 H           7.3302   -1.4985   -4.5159 H       1  UNL1        0.0829
@<TRIPOS>BOND
     1     1     2    1
     2     2     3    2
     3     2     4   am
     4     4     5    1
     5     5     6    1
     6     6     7   ar
     7     7     8   ar
     8     8     9   ar
     9     9    10   ar
    10    10    11   ar
    11     6    11   ar
    12     1    12    1
    13     1    13    1
    14     1    14    1
    15     4    15    1
    16     5    16    1
    17     5    17    1
    18     7    18    1
    19     8    19    1
    20     9    20    1
    21    10    21    1
