@<TRIPOS>MOLECULE
MOL
   34    34     1     0     0
SMALL
No Charge or Current Charge


@<TRIPOS>ATOM
 1  C1  -1.777000  -0.104000  -0.345000  C.2  1  MOL  0.983980 
 2  C2  3.293000  -1.292000  0.186000  C.3  1  MOL  -0.021980 
 3  C3  1.971000  -1.302000  0.970000  C.3  1  MOL  -0.100447 
 4  C4  3.248000  -0.294000  -0.981000  C.3  1  MOL  -0.100447 
 5  C5  1.583000  0.108000  1.451000  C.3  1  MOL  -0.033759 
 6  C6  2.883000  1.120000  -0.494000  C.3  1  MOL  -0.033759 
 7  C7  1.587000  1.158000  0.330000  C.3  1  MOL  0.066473 
 8  C8  -3.839000  -1.374000  -0.241000  C.3  1  MOL  -0.028720 
 9  C9  -3.810000  0.951000  0.620000  C.3  1  MOL  -0.028720 
 10  C10  -0.976000  1.201000  -0.087000  C.3  1  MOL  -0.568517 
 11  N1  -3.069000  -0.148000  0.003000  N.am  1  MOL  -0.237110 
 12  N2  0.402000  0.938000  -0.620000  N.4  1  MOL  -0.637658 
 13  O1  -1.150000  -1.038000  -0.867000  O.2  1  MOL  -0.625131 
 14  H1  4.115000  -1.019000  0.862000  H  1  MOL  0.056332 
 15  H2  3.515000  -2.297000  -0.187000  H  1  MOL  0.056332 
 16  H3  1.169000  -1.724000  0.348000  H  1  MOL  0.054031 
 17  H4  2.049000  -1.959000  1.842000  H  1  MOL  0.054031 
 18  H5  4.215000  -0.254000  -1.492000  H  1  MOL  0.054031 
 19  H6  2.525000  -0.640000  -1.736000  H  1  MOL  0.054031 
 20  H7  0.619000  0.093000  1.975000  H  1  MOL  0.063622 
 21  H8  2.315000  0.458000  2.190000  H  1  MOL  0.063622 
 22  H9  3.678000  1.495000  0.162000  H  1  MOL  0.063622 
 23  H10  2.824000  1.830000  -1.330000  H  1  MOL  0.063622 
 24  H11  1.428000  2.162000  0.738000  H  1  MOL  0.112064 
 25  H12  -4.219000  -1.764000  0.709000  H  1  MOL  0.049090 
 26  H13  -3.195000  -2.113000  -0.711000  H  1  MOL  0.049090 
 27  H14  -4.686000  -1.149000  -0.898000  H  1  MOL  0.049090 
 28  H15  -4.638000  1.254000  -0.031000  H  1  MOL  0.049090 
 29  H16  -3.176000  1.819000  0.799000  H  1  MOL  0.049090 
 30  H17  -4.225000  0.624000  1.579000  H  1  MOL  0.049090 
 31  H18  -1.402000  2.063000  -0.604000  H  1  MOL  0.274322 
 32  H19  -0.905000  1.432000  0.977000  H  1  MOL  0.274322 
 33  H20  0.560000  1.491000  -1.467000  H  1  MOL  0.413636 
 34  H21  0.331000  -0.067000  -0.926000  H  1  MOL  0.413636 
@<TRIPOS>BOND
     1     1    10 1   
     2     1    11 am  
     3     1    13 2   
     4     2     3 1   
     5     2     4 1   
     6     2    14 1   
     7     2    15 1   
     8     3     5 1   
     9     3    16 1   
    10     3    17 1   
    11     4     6 1   
    12     4    18 1   
    13     4    19 1   
    14     5     7 1   
    15     5    20 1   
    16     5    21 1   
    17     6     7 1   
    18     6    22 1   
    19     6    23 1   
    20     7    12 1   
    21     7    24 1   
    22     8    11 1   
    23     8    25 1   
    24     8    26 1   
    25     8    27 1   
    26     9    11 1   
    27     9    28 1   
    28     9    29 1   
    29     9    30 1   
    30    10    12 1   
    31    10    31 1   
    32    10    32 1   
    33    12    33 1   
    34    12    34 1   
@<TRIPOS>SUBSTRUCTURE
     1 MOL         1 TEMP              0 ****  ****    0 ROOT
