@<TRIPOS>MOLECULE
MOL
   34    34     1     0     0
SMALL
No Charge or Current Charge


@<TRIPOS>ATOM
      1 C1          -1.7770    -0.1040    -0.3450 C.2        1 MOL       0.000000
      2 C2           3.2930    -1.2920     0.1860 C.3        1 MOL       0.000000
      3 C3           1.9710    -1.3020     0.9700 C.3        1 MOL       0.000000
      4 C4           3.2480    -0.2940    -0.9810 C.3        1 MOL       0.000000
      5 C5           1.5830     0.1080     1.4510 C.3        1 MOL       0.000000
      6 C6           2.8830     1.1200    -0.4940 C.3        1 MOL       0.000000
      7 C7           1.5870     1.1580     0.3300 C.3        1 MOL       0.000000
      8 C8          -3.8390    -1.3740    -0.2410 C.3        1 MOL       0.000000
      9 C9          -3.8100     0.9510     0.6200 C.3        1 MOL       0.000000
     10 C10         -0.9760     1.2010    -0.0870 C.3        1 MOL       0.000000
     11 N1          -3.0690    -0.1480     0.0030 N.am       1 MOL       0.000000
     12 N2           0.4020     0.9380    -0.6200 N.4        1 MOL       0.000000
     13 O1          -1.1500    -1.0380    -0.8670 O.2        1 MOL       0.000000
     14 H1           4.1150    -1.0190     0.8620 H          1 MOL       0.000000
     15 H2           3.5150    -2.2970    -0.1870 H          1 MOL       0.000000
     16 H3           1.1690    -1.7240     0.3480 H          1 MOL       0.000000
     17 H4           2.0490    -1.9590     1.8420 H          1 MOL       0.000000
     18 H5           4.2150    -0.2540    -1.4920 H          1 MOL       0.000000
     19 H6           2.5250    -0.6400    -1.7360 H          1 MOL       0.000000
     20 H7           0.6190     0.0930     1.9750 H          1 MOL       0.000000
     21 H8           2.3150     0.4580     2.1900 H          1 MOL       0.000000
     22 H9           3.6780     1.4950     0.1620 H          1 MOL       0.000000
     23 H10          2.8240     1.8300    -1.3300 H          1 MOL       0.000000
     24 H11          1.4280     2.1620     0.7380 H          1 MOL       0.000000
     25 H12         -4.2190    -1.7640     0.7090 H          1 MOL       0.000000
     26 H13         -3.1950    -2.1130    -0.7110 H          1 MOL       0.000000
     27 H14         -4.6860    -1.1490    -0.8980 H          1 MOL       0.000000
     28 H15         -4.6380     1.2540    -0.0310 H          1 MOL       0.000000
     29 H16         -3.1760     1.8190     0.7990 H          1 MOL       0.000000
     30 H17         -4.2250     0.6240     1.5790 H          1 MOL       0.000000
     31 H18         -1.4020     2.0630    -0.6040 H          1 MOL       0.000000
     32 H19         -0.9050     1.4320     0.9770 H          1 MOL       0.000000
     33 H20          0.5600     1.4910    -1.4670 H          1 MOL       0.000000
     34 H21          0.3310    -0.0670    -0.9260 H          1 MOL       0.000000
@<TRIPOS>BOND
     1     1    10 1   
     2     1    11 am  
     3     1    13 2   
     4     2     3 1   
     5     2     4 1   
     6     2    14 1   
     7     2    15 1   
     8     3     5 1   
     9     3    16 1   
    10     3    17 1   
    11     4     6 1   
    12     4    18 1   
    13     4    19 1   
    14     5     7 1   
    15     5    20 1   
    16     5    21 1   
    17     6     7 1   
    18     6    22 1   
    19     6    23 1   
    20     7    12 1   
    21     7    24 1   
    22     8    11 1   
    23     8    25 1   
    24     8    26 1   
    25     8    27 1   
    26     9    11 1   
    27     9    28 1   
    28     9    29 1   
    29     9    30 1   
    30    10    12 1   
    31    10    31 1   
    32    10    32 1   
    33    12    33 1   
    34    12    34 1   
@<TRIPOS>SUBSTRUCTURE
     1 MOL         1 TEMP              0 ****  ****    0 ROOT
