@<TRIPOS>MOLECULE
MOL
   41    41     1     0     0
SMALL
No Charge or Current Charge


@<TRIPOS>ATOM
      1 C1           0.9390     2.4360     0.2470 C.2        1 MOL       0.000000
      2 C2           2.3420    -0.3790    -0.0910 C.2        1 MOL       0.000000
      3 C3          -4.5660    -0.2180     0.0560 C.3        1 MOL       0.000000
      4 C4          -3.9250    -1.5620     0.4310 C.3        1 MOL       0.000000
      5 C5          -3.7010     0.5390    -0.9610 C.3        1 MOL       0.000000
      6 C6          -2.4840    -1.3760     0.9290 C.3        1 MOL       0.000000
      7 C7          -2.2590     0.7230    -0.4620 C.3        1 MOL       0.000000
      8 C8          -1.5990    -0.6180    -0.0820 C.3        1 MOL       0.000000
      9 C9           1.4900     3.7750    -0.2250 C.3        1 MOL       0.000000
     10 C10          4.0030    -2.1190     0.3060 C.3        1 MOL       0.000000
     11 C11          1.8640    -2.7870    -0.6900 C.3        1 MOL       0.000000
     12 C12         -0.1720    -0.4740     0.4830 C.3        1 MOL       0.000000
     13 C13          0.9000     0.0330    -0.5150 C.3        1 MOL       0.000000
     14 N1           0.8810     1.4760    -0.7490 N.am       1 MOL       0.000000
     15 N2           2.6830    -1.7090    -0.1590 N.am       1 MOL       0.000000
     16 O1           0.5580     2.2660     1.3960 O.2        1 MOL       0.000000
     17 O2           3.1400     0.4750     0.2800 O.2        1 MOL       0.000000
     18 H1          -5.5770    -0.3760    -0.3430 H          1 MOL       0.000000
     19 H2          -4.6790     0.3940     0.9630 H          1 MOL       0.000000
     20 H3          -4.5240    -2.0720     1.1960 H          1 MOL       0.000000
     21 H4          -3.9210    -2.2190    -0.4520 H          1 MOL       0.000000
     22 H5          -3.6880    -0.0200    -1.9090 H          1 MOL       0.000000
     23 H6          -4.1450     1.5180    -1.1850 H          1 MOL       0.000000
     24 H7          -2.4970    -0.8140     1.8760 H          1 MOL       0.000000
     25 H8          -2.0360    -2.3540     1.1570 H          1 MOL       0.000000
     26 H9          -1.6610     1.2340    -1.2230 H          1 MOL       0.000000
     27 H10         -2.2530     1.3780     0.4220 H          1 MOL       0.000000
     28 H11         -1.5450    -1.2350    -0.9980 H          1 MOL       0.000000
     29 H12          1.1950     4.0140    -1.2530 H          1 MOL       0.000000
     30 H13          1.1410     4.5590     0.4470 H          1 MOL       0.000000
     31 H14          2.5850     3.7380    -0.1820 H          1 MOL       0.000000
     32 H15          3.9090    -2.8870     1.0840 H          1 MOL       0.000000
     33 H16          4.5130    -1.2460     0.7100 H          1 MOL       0.000000
     34 H17          4.5920    -2.5360    -0.5220 H          1 MOL       0.000000
     35 H18          2.4300    -3.3390    -1.4530 H          1 MOL       0.000000
     36 H19          0.9520    -2.4140    -1.1530 H          1 MOL       0.000000
     37 H20          1.5830    -3.4970     0.0990 H          1 MOL       0.000000
     38 H21         -0.1690     0.1910     1.3480 H          1 MOL       0.000000
     39 H22          0.1490    -1.4590     0.8430 H          1 MOL       0.000000
     40 H23          0.6910    -0.4170    -1.4950 H          1 MOL       0.000000
     41 H24          1.4050     1.7360    -1.5760 H          1 MOL       0.000000
@<TRIPOS>BOND
     1     1     9 1   
     2     1    14 am  
     3     1    16 2   
     4     2    13 1   
     5     2    15 am  
     6     2    17 2   
     7     3     4 1   
     8     3     5 1   
     9     3    18 1   
    10     3    19 1   
    11     4     6 1   
    12     4    20 1   
    13     4    21 1   
    14     5     7 1   
    15     5    22 1   
    16     5    23 1   
    17     6     8 1   
    18     6    24 1   
    19     6    25 1   
    20     7     8 1   
    21     7    26 1   
    22     7    27 1   
    23     8    12 1   
    24     8    28 1   
    25     9    29 1   
    26     9    30 1   
    27     9    31 1   
    28    10    15 1   
    29    10    32 1   
    30    10    33 1   
    31    10    34 1   
    32    11    15 1   
    33    11    35 1   
    34    11    36 1   
    35    11    37 1   
    36    12    13 1   
    37    12    38 1   
    38    12    39 1   
    39    13    14 1   
    40    13    40 1   
    41    14    41 1   
@<TRIPOS>SUBSTRUCTURE
     1 MOL         1 TEMP              0 ****  ****    0 ROOT
