@<TRIPOS>MOLECULE
MOL
   41    41     1     0     0
SMALL
No Charge or Current Charge


@<TRIPOS>ATOM
 1  C1  0.939000  2.436000  0.247000  C.2  1  MOL  0.510929 
 2  C2  2.342000  -0.379000  -0.091000  C.2  1  MOL  0.636107 
 3  C3  -4.566000  -0.218000  0.056000  C.3  1  MOL  0.002280 
 4  C4  -3.925000  -1.562000  0.431000  C.3  1  MOL  -0.008889 
 5  C5  -3.701000  0.539000  -0.961000  C.3  1  MOL  -0.008889 
 6  C6  -2.484000  -1.376000  0.929000  C.3  1  MOL  0.029401 
 7  C7  -2.259000  0.723000  -0.462000  C.3  1  MOL  0.029401 
 8  C8  -1.599000  -0.618000  -0.082000  C.3  1  MOL  0.153705 
 9  C9  1.490000  3.775000  -0.225000  C.3  1  MOL  -0.313908 
 10  C10  4.003000  -2.119000  0.306000  C.3  1  MOL  -0.071473 
 11  C11  1.864000  -2.787000  -0.690000  C.3  1  MOL  -0.089282 
 12  C12  -0.172000  -0.474000  0.483000  C.3  1  MOL  -0.064897 
 13  C13  0.900000  0.033000  -0.515000  C.3  1  MOL  -0.148650 
 14  N1  0.881000  1.476000  -0.749000  N.am  1  MOL  -0.353167 
 15  N2  2.683000  -1.709000  -0.159000  N.am  1  MOL  -0.344286 
 16  O1  0.558000  2.266000  1.396000  O.2  1  MOL  -0.514977 
 17  O2  3.140000  0.475000  0.280000  O.2  1  MOL  -0.560519 
 18  H1  -5.577000  -0.376000  -0.343000  H  1  MOL  0.000696 
 19  H2  -4.679000  0.394000  0.963000  H  1  MOL  0.000696 
 20  H3  -4.524000  -2.072000  1.196000  H  1  MOL  -0.008541 
 21  H4  -3.921000  -2.219000  -0.452000  H  1  MOL  -0.008541 
 22  H5  -3.688000  -0.020000  -1.909000  H  1  MOL  -0.008541 
 23  H6  -4.145000  1.518000  -1.185000  H  1  MOL  -0.008541 
 24  H7  -2.497000  -0.814000  1.876000  H  1  MOL  -0.011309 
 25  H8  -2.036000  -2.354000  1.157000  H  1  MOL  -0.011309 
 26  H9  -1.661000  1.234000  -1.223000  H  1  MOL  -0.011309 
 27  H10  -2.253000  1.378000  0.422000  H  1  MOL  -0.011309 
 28  H11  -1.545000  -1.235000  -0.998000  H  1  MOL  -0.041214 
 29  H12  1.195000  4.014000  -1.253000  H  1  MOL  0.111818 
 30  H13  1.141000  4.559000  0.447000  H  1  MOL  0.116842 
 31  H14  2.585000  3.738000  -0.182000  H  1  MOL  0.089295 
 32  H15  3.909000  -2.887000  1.084000  H  1  MOL  0.087465 
 33  H16  4.513000  -1.246000  0.710000  H  1  MOL  0.084069 
 34  H17  4.592000  -2.536000  -0.522000  H  1  MOL  0.088028 
 35  H18  2.430000  -3.339000  -1.453000  H  1  MOL  0.094118 
 36  H19  0.952000  -2.414000  -1.153000  H  1  MOL  0.067267 
 37  H20  1.583000  -3.497000  0.099000  H  1  MOL  0.084095 
 38  H21  -0.169000  0.191000  1.348000  H  1  MOL  0.033184 
 39  H22  0.149000  -1.459000  0.843000  H  1  MOL  0.033184 
 40  H23  0.691000  -0.417000  -1.495000  H  1  MOL  0.090019 
 41  H24  1.405000  1.736000  -1.576000  H  1  MOL  0.256949 
@<TRIPOS>BOND
     1     1     9 1   
     2     1    14 am  
     3     1    16 2   
     4     2    13 1   
     5     2    15 am  
     6     2    17 2   
     7     3     4 1   
     8     3     5 1   
     9     3    18 1   
    10     3    19 1   
    11     4     6 1   
    12     4    20 1   
    13     4    21 1   
    14     5     7 1   
    15     5    22 1   
    16     5    23 1   
    17     6     8 1   
    18     6    24 1   
    19     6    25 1   
    20     7     8 1   
    21     7    26 1   
    22     7    27 1   
    23     8    12 1   
    24     8    28 1   
    25     9    29 1   
    26     9    30 1   
    27     9    31 1   
    28    10    15 1   
    29    10    32 1   
    30    10    33 1   
    31    10    34 1   
    32    11    15 1   
    33    11    35 1   
    34    11    36 1   
    35    11    37 1   
    36    12    13 1   
    37    12    38 1   
    38    12    39 1   
    39    13    14 1   
    40    13    40 1   
    41    14    41 1   
@<TRIPOS>SUBSTRUCTURE
     1 MOL         1 TEMP              0 ****  ****    0 ROOT
