@<TRIPOS>MOLECULE
*****
 22 22 0 0 0
SMALL
GASTEIGER

@<TRIPOS>ATOM
      1 C           1.0955   -0.3217   -1.0618 C.3     1  UNL1        0.0122
      2 C           2.5982   -0.3489   -1.1475 C.2     1  UNL1        0.2102
      3 O           3.2149    0.2175   -2.0437 O.2     1  UNL1        0.2761
      4 N           3.1950   -1.0568   -0.1325 N.am    1  UNL1        0.3114
      5 C           4.6320   -1.1844   -0.0075 C.3     1  UNL1        0.0382
      6 C           5.0922   -2.6190   -0.1171 C.ar    1  UNL1        0.0107
      7 C           5.9356   -2.9780   -1.1869 C.ar    1  UNL1        0.0373
      8 C           6.3575   -4.2982   -1.3547 C.ar    1  UNL1        0.0414
      9 CL          7.3583   -4.7129   -2.6908 Cl      1  UNL1        0.0835
     10 C           5.9669   -5.2827   -0.4530 C.ar    1  UNL1        0.0420
     11 C           5.1605   -4.9394    0.6330 C.ar    1  UNL1        0.0417
     12 C           4.7254   -3.6182    0.8008 C.ar    1  UNL1        0.0457
     13 CL          3.7287   -3.2748    2.1706 Cl      1  UNL1        0.0832
     14 H           0.6892    0.2138   -1.9252 H       1  UNL1        0.0322
     15 H           0.7821    0.1937   -0.1498 H       1  UNL1        0.0322
     16 H           0.7009   -1.3415   -1.0671 H       1  UNL1        0.0322
     17 H           2.6239   -1.4268    0.6171 H       1  UNL1        0.1490
     18 H           4.9236   -0.7699    0.9634 H       1  UNL1        0.0512
     19 H           5.1222   -0.5695   -0.7705 H       1  UNL1        0.0512
     20 H           6.2604   -2.2221   -1.9004 H       1  UNL1        0.0636
     21 H           6.2848   -6.3134   -0.5886 H       1  UNL1        0.0633
     22 H           4.8702   -5.7102    1.3434 H       1  UNL1        0.0633
@<TRIPOS>BOND
     1     1     2    1
     2     2     3    2
     3     2     4   am
     4     4     5    1
     5     5     6    1
     6     6     7   ar
     7     7     8   ar
     8     8     9    1
     9     8    10   ar
    10    10    11   ar
    11    11    12   ar
    12     6    12   ar
    13    12    13    1
    14     1    14    1
    15     1    15    1
    16     1    16    1
    17     4    17    1
    18     5    18    1
    19     5    19    1
    20     7    20    1
    21    10    21    1
    22    11    22    1
