@<TRIPOS>MOLECULE
MOL
   34    34     1     0     0
SMALL
No Charge or Current Charge


@<TRIPOS>ATOM
 1  C1  2.084000  -0.342000  -0.130000  C.2  1  MOL  0.636107 
 2  C2  -4.031000  0.178000  -0.487000  C.3  1  MOL  -0.022832 
 3  C3  -3.048000  1.358000  -0.444000  C.3  1  MOL  -0.088705 
 4  C4  -3.293000  -1.169000  -0.476000  C.3  1  MOL  -0.088705 
 5  C5  -2.092000  1.258000  0.759000  C.3  1  MOL  -0.005938 
 6  C6  -2.335000  -1.279000  0.724000  C.3  1  MOL  -0.005938 
 7  C7  -1.366000  -0.092000  0.832000  C.3  1  MOL  0.190148 
 8  C8  4.463000  -0.789000  0.003000  C.3  1  MOL  -0.071473 
 9  C9  3.678000  1.562000  -0.014000  C.3  1  MOL  -0.089282 
 10  C10  0.894000  0.657000  -0.186000  C.3  1  MOL  0.597133 
 11  N1  3.329000  0.143000  -0.050000  N.am  1  MOL  -0.344286 
 12  N2  -0.330000  -0.204000  -0.290000  N.4  1  MOL  -1.164611 
 13  O1  1.792000  -1.546000  -0.159000  O.2  1  MOL  -0.560519 
 14  H1  -4.697000  0.233000  0.385000  H  1  MOL  0.047807 
 15  H2  -4.671000  0.252000  -1.373000  H  1  MOL  0.047807 
 16  H3  -2.479000  1.400000  -1.388000  H  1  MOL  0.049700 
 17  H4  -3.588000  2.310000  -0.391000  H  1  MOL  0.049700 
 18  H5  -4.006000  -1.999000  -0.438000  H  1  MOL  0.049700 
 19  H6  -2.744000  -1.300000  -1.422000  H  1  MOL  0.049700 
 20  H7  -1.377000  2.090000  0.766000  H  1  MOL  0.051478 
 21  H8  -2.669000  1.350000  1.687000  H  1  MOL  0.051478 
 22  H9  -2.917000  -1.288000  1.653000  H  1  MOL  0.051478 
 23  H10  -1.777000  -2.224000  0.706000  H  1  MOL  0.051478 
 24  H11  -0.771000  -0.170000  1.748000  H  1  MOL  0.079366 
 25  H12  5.127000  -0.607000  -0.848000  H  1  MOL  0.087465 
 26  H13  4.088000  -1.810000  -0.034000  H  1  MOL  0.084069 
 27  H14  5.023000  -0.633000  0.931000  H  1  MOL  0.088028 
 28  H15  4.238000  1.782000  0.901000  H  1  MOL  0.094118 
 29  H16  2.793000  2.198000  -0.036000  H  1  MOL  0.067267 
 30  H17  4.307000  1.813000  -0.875000  H  1  MOL  0.084095 
 31  H18  0.828000  1.261000  0.721000  H  1  MOL  -0.019752 
 32  H19  0.948000  1.324000  -1.048000  H  1  MOL  -0.019752 
 33  H20  0.094000  -1.171000  -0.293000  H  1  MOL  0.486837 
 34  H21  -0.796000  -0.066000  -1.190000  H  1  MOL  0.486837 
@<TRIPOS>BOND
     1     1    10 1   
     2     1    11 am  
     3     1    13 2   
     4     2     3 1   
     5     2     4 1   
     6     2    14 1   
     7     2    15 1   
     8     3     5 1   
     9     3    16 1   
    10     3    17 1   
    11     4     6 1   
    12     4    18 1   
    13     4    19 1   
    14     5     7 1   
    15     5    20 1   
    16     5    21 1   
    17     6     7 1   
    18     6    22 1   
    19     6    23 1   
    20     7    12 1   
    21     7    24 1   
    22     8    11 1   
    23     8    25 1   
    24     8    26 1   
    25     8    27 1   
    26     9    11 1   
    27     9    28 1   
    28     9    29 1   
    29     9    30 1   
    30    10    12 1   
    31    10    31 1   
    32    10    32 1   
    33    12    33 1   
    34    12    34 1   
@<TRIPOS>SUBSTRUCTURE
     1 MOL         1 TEMP              0 ****  ****    0 ROOT
