@<TRIPOS>MOLECULE
MOL
   34    34     1     0     0
SMALL
No Charge or Current Charge


@<TRIPOS>ATOM
      1 C1           2.0840    -0.3420    -0.1300 C.2        1 MOL       0.000000
      2 C2          -4.0310     0.1780    -0.4870 C.3        1 MOL       0.000000
      3 C3          -3.0480     1.3580    -0.4440 C.3        1 MOL       0.000000
      4 C4          -3.2930    -1.1690    -0.4760 C.3        1 MOL       0.000000
      5 C5          -2.0920     1.2580     0.7590 C.3        1 MOL       0.000000
      6 C6          -2.3350    -1.2790     0.7240 C.3        1 MOL       0.000000
      7 C7          -1.3660    -0.0920     0.8320 C.3        1 MOL       0.000000
      8 C8           4.4630    -0.7890     0.0030 C.3        1 MOL       0.000000
      9 C9           3.6780     1.5620    -0.0140 C.3        1 MOL       0.000000
     10 C10          0.8940     0.6570    -0.1860 C.3        1 MOL       0.000000
     11 N1           3.3290     0.1430    -0.0500 N.am       1 MOL       0.000000
     12 N2          -0.3300    -0.2040    -0.2900 N.4        1 MOL       0.000000
     13 O1           1.7920    -1.5460    -0.1590 O.2        1 MOL       0.000000
     14 H1          -4.6970     0.2330     0.3850 H          1 MOL       0.000000
     15 H2          -4.6710     0.2520    -1.3730 H          1 MOL       0.000000
     16 H3          -2.4790     1.4000    -1.3880 H          1 MOL       0.000000
     17 H4          -3.5880     2.3100    -0.3910 H          1 MOL       0.000000
     18 H5          -4.0060    -1.9990    -0.4380 H          1 MOL       0.000000
     19 H6          -2.7440    -1.3000    -1.4220 H          1 MOL       0.000000
     20 H7          -1.3770     2.0900     0.7660 H          1 MOL       0.000000
     21 H8          -2.6690     1.3500     1.6870 H          1 MOL       0.000000
     22 H9          -2.9170    -1.2880     1.6530 H          1 MOL       0.000000
     23 H10         -1.7770    -2.2240     0.7060 H          1 MOL       0.000000
     24 H11         -0.7710    -0.1700     1.7480 H          1 MOL       0.000000
     25 H12          5.1270    -0.6070    -0.8480 H          1 MOL       0.000000
     26 H13          4.0880    -1.8100    -0.0340 H          1 MOL       0.000000
     27 H14          5.0230    -0.6330     0.9310 H          1 MOL       0.000000
     28 H15          4.2380     1.7820     0.9010 H          1 MOL       0.000000
     29 H16          2.7930     2.1980    -0.0360 H          1 MOL       0.000000
     30 H17          4.3070     1.8130    -0.8750 H          1 MOL       0.000000
     31 H18          0.8280     1.2610     0.7210 H          1 MOL       0.000000
     32 H19          0.9480     1.3240    -1.0480 H          1 MOL       0.000000
     33 H20          0.0940    -1.1710    -0.2930 H          1 MOL       0.000000
     34 H21         -0.7960    -0.0660    -1.1900 H          1 MOL       0.000000
@<TRIPOS>BOND
     1     1    10 1   
     2     1    11 am  
     3     1    13 2   
     4     2     3 1   
     5     2     4 1   
     6     2    14 1   
     7     2    15 1   
     8     3     5 1   
     9     3    16 1   
    10     3    17 1   
    11     4     6 1   
    12     4    18 1   
    13     4    19 1   
    14     5     7 1   
    15     5    20 1   
    16     5    21 1   
    17     6     7 1   
    18     6    22 1   
    19     6    23 1   
    20     7    12 1   
    21     7    24 1   
    22     8    11 1   
    23     8    25 1   
    24     8    26 1   
    25     8    27 1   
    26     9    11 1   
    27     9    28 1   
    28     9    29 1   
    29     9    30 1   
    30    10    12 1   
    31    10    31 1   
    32    10    32 1   
    33    12    33 1   
    34    12    34 1   
@<TRIPOS>SUBSTRUCTURE
     1 MOL         1 TEMP              0 ****  ****    0 ROOT
