@<TRIPOS>MOLECULE
MOL
   22    22     1     0     0
SMALL
No Charge or Current Charge


@<TRIPOS>ATOM
      1 C1           1.0640     2.0130    -0.1430 C.ar       1 MOL       0.000000
      2 C2          -0.0520     1.3040     0.2960 C.ar       1 MOL       0.000000
      3 C3           2.2900     1.3700    -0.3310 C.ar       1 MOL       0.000000
      4 C4           1.2680    -0.7200     0.3690 C.ar       1 MOL       0.000000
      5 C5           0.0430    -0.0720     0.5540 C.ar       1 MOL       0.000000
      6 C6           2.3750     0.0060    -0.0700 C.ar       1 MOL       0.000000
      7 C7          -3.2660    -0.1430    -0.1080 C.2        1 MOL       0.000000
      8 C8          -4.2040    -0.3960    -1.2790 C.3        1 MOL       0.000000
      9 C9          -1.1770    -0.8490     1.0180 C.3        1 MOL       0.000000
     10 N1          -2.2030    -1.0010    -0.0100 N.am       1 MOL       0.000000
     11 O1          -3.4610     0.7630     0.6940 O.2        1 MOL       0.000000
     12 Cl1          3.9110    -0.8270    -0.2980 Cl         1 MOL       0.000000
     13 H1           0.9860     3.0790    -0.3370 H          1 MOL       0.000000
     14 H2          -1.0040     1.8050     0.4460 H          1 MOL       0.000000
     15 H3           3.1640     1.9170    -0.6700 H          1 MOL       0.000000
     16 H4           1.3660    -1.7830     0.5690 H          1 MOL       0.000000
     17 H5          -5.2230    -0.4970    -0.8940 H          1 MOL       0.000000
     18 H6          -4.1900     0.4770    -1.9390 H          1 MOL       0.000000
     19 H7          -3.9540    -1.2880    -1.8630 H          1 MOL       0.000000
     20 H8          -0.8810    -1.8460     1.3640 H          1 MOL       0.000000
     21 H9          -1.6620    -0.3310     1.8490 H          1 MOL       0.000000
     22 H10         -2.0190    -1.6370    -0.7730 H          1 MOL       0.000000
@<TRIPOS>BOND
     1     1     2 ar  
     2     1     3 ar  
     3     1    13 1   
     4     2     5 ar  
     5     2    14 1   
     6     3     6 ar  
     7     3    15 1   
     8     4     5 ar  
     9     4     6 ar  
    10     4    16 1   
    11     5     9 1   
    12     6    12 1   
    13     7     8 1   
    14     7    10 am  
    15     7    11 2   
    16     8    17 1   
    17     8    18 1   
    18     8    19 1   
    19     9    10 1   
    20     9    20 1   
    21     9    21 1   
    22    10    22 1   
@<TRIPOS>SUBSTRUCTURE
     1 MOL         1 TEMP              0 ****  ****    0 ROOT
