@<TRIPOS>MOLECULE
MOL
   22    22     1     0     0
SMALL
No Charge or Current Charge


@<TRIPOS>ATOM
 1  C1  1.064000  2.013000  -0.143000  C.ar  1  MOL  -0.251725 
 2  C2  -0.052000  1.304000  0.296000  C.ar  1  MOL  -0.096472 
 3  C3  2.290000  1.370000  -0.331000  C.ar  1  MOL  -0.030340 
 4  C4  1.268000  -0.720000  0.369000  C.ar  1  MOL  -0.042933 
 5  C5  0.043000  -0.072000  0.554000  C.ar  1  MOL  0.041872 
 6  C6  2.375000  0.006000  -0.070000  C.ar  1  MOL  -0.054004 
 7  C7  -3.266000  -0.143000  -0.108000  C.2  1  MOL  0.510929 
 8  C8  -4.204000  -0.396000  -1.279000  C.3  1  MOL  -0.313908 
 9  C9  -1.177000  -0.849000  1.018000  C.3  1  MOL  -0.133940 
 10  N1  -2.203000  -1.001000  -0.010000  N.am  1  MOL  -0.353167 
 11  O1  -3.461000  0.763000  0.694000  O.2  1  MOL  -0.514977 
 12  Cl1  3.911000  -0.827000  -0.298000  Cl  1  MOL  -0.120792 
 13  H1  0.986000  3.079000  -0.337000  H  1  MOL  0.170492 
 14  H2  -1.004000  1.805000  0.446000  H  1  MOL  0.133403 
 15  H3  3.164000  1.917000  -0.670000  H  1  MOL  0.133879 
 16  H4  1.366000  -1.783000  0.569000  H  1  MOL  0.133165 
 17  H5  -5.223000  -0.497000  -0.894000  H  1  MOL  0.111818 
 18  H6  -4.190000  0.477000  -1.939000  H  1  MOL  0.116842 
 19  H7  -3.954000  -1.288000  -1.863000  H  1  MOL  0.089295 
 20  H8  -0.881000  -1.846000  1.364000  H  1  MOL  0.106807 
 21  H9  -1.662000  -0.331000  1.849000  H  1  MOL  0.106807 
 22  H10  -2.019000  -1.637000  -0.773000  H  1  MOL  0.256949 
@<TRIPOS>BOND
     1     1     2 ar  
     2     1     3 ar  
     3     1    13 1   
     4     2     5 ar  
     5     2    14 1   
     6     3     6 ar  
     7     3    15 1   
     8     4     5 ar  
     9     4     6 ar  
    10     4    16 1   
    11     5     9 1   
    12     6    12 1   
    13     7     8 1   
    14     7    10 am  
    15     7    11 2   
    16     8    17 1   
    17     8    18 1   
    18     8    19 1   
    19     9    10 1   
    20     9    20 1   
    21     9    21 1   
    22    10    22 1   
@<TRIPOS>SUBSTRUCTURE
     1 MOL         1 TEMP              0 ****  ****    0 ROOT
