@<TRIPOS>MOLECULE
MOL
   42    42     1     0     0
SMALL
No Charge or Current Charge


@<TRIPOS>ATOM
      1 C1           0.3080     1.6040    -0.3640 C.2        1 MOL       0.000000
      2 C2           3.2480    -1.7840    -0.2540 C.2        1 MOL       0.000000
      3 C3          -3.6490    -1.5680    -0.9020 C.3        1 MOL       0.000000
      4 C4          -3.0580    -0.1500    -0.8620 C.3        1 MOL       0.000000
      5 C5          -2.6550    -2.6070    -0.3610 C.3        1 MOL       0.000000
      6 C6          -2.5610     0.2100     0.5480 C.3        1 MOL       0.000000
      7 C7          -2.1620    -2.2300     1.0470 C.3        1 MOL       0.000000
      8 C8          -1.5480    -0.8130     1.1150 C.3        1 MOL       0.000000
      9 C9          -0.1760     3.9090    -0.9560 C.3        1 MOL       0.000000
     10 C10          0.2580     3.4170     1.4040 C.3        1 MOL       0.000000
     11 C11          2.7040    -0.3750    -0.6500 C.3        1 MOL       0.000000
     12 C12         -0.1560    -0.7900     0.4410 C.3        1 MOL       0.000000
     13 C13          0.6340     0.5090     0.6760 C.3        1 MOL       0.000000
     14 N1           0.1600     2.8930     0.0420 N.am       1 MOL       0.000000
     15 N2           2.1240     0.2250     0.6070 N.4        1 MOL       0.000000
     16 O1           3.7830    -2.4440    -1.1590 O.co2      1 MOL       0.000000
     17 O2           0.2170     1.2660    -1.5510 O.2        1 MOL       0.000000
     18 O3           3.0720    -2.0790     0.9700 O.co2      1 MOL       0.000000
     19 H1          -4.5630    -1.5940    -0.2910 H          1 MOL       0.000000
     20 H2          -3.9490    -1.8260    -1.9260 H          1 MOL       0.000000
     21 H3          -2.2290    -0.0720    -1.5780 H          1 MOL       0.000000
     22 H4          -3.8110     0.5820    -1.1810 H          1 MOL       0.000000
     23 H5          -3.1230    -3.6000    -0.3320 H          1 MOL       0.000000
     24 H6          -1.8020    -2.6900    -1.0480 H          1 MOL       0.000000
     25 H7          -2.1420     1.2240     0.5560 H          1 MOL       0.000000
     26 H8          -3.4230     0.2370     1.2300 H          1 MOL       0.000000
     27 H9          -3.0150    -2.2670     1.7390 H          1 MOL       0.000000
     28 H10         -1.4360    -2.9710     1.4080 H          1 MOL       0.000000
     29 H11         -1.3890    -0.5740     2.1770 H          1 MOL       0.000000
     30 H12         -1.0930     4.4280    -0.6570 H          1 MOL       0.000000
     31 H13         -0.3230     3.4280    -1.9200 H          1 MOL       0.000000
     32 H14          0.6330     4.6440    -1.0300 H          1 MOL       0.000000
     33 H15          0.9160     4.2920     1.4010 H          1 MOL       0.000000
     34 H16          0.6720     2.6920     2.1010 H          1 MOL       0.000000
     35 H17         -0.7300     3.7270     1.7650 H          1 MOL       0.000000
     36 H18          1.9340    -0.4330    -1.4170 H          1 MOL       0.000000
     37 H19          3.5070     0.2680    -1.0120 H          1 MOL       0.000000
     38 H20          0.4340    -1.6130     0.8610 H          1 MOL       0.000000
     39 H21         -0.2340    -0.9660    -0.6340 H          1 MOL       0.000000
     40 H22          0.4720     0.8380     1.7020 H          1 MOL       0.000000
     41 H23          2.3720    -0.5650     1.2810 H          1 MOL       0.000000
     42 H24          2.6480     1.0580     0.8860 H          1 MOL       0.000000
@<TRIPOS>BOND
     1     1    13 1   
     2     1    14 am  
     3     1    17 2   
     4     2    11 1   
     5     2    16 1   
     6     2    18 1   
     7     3     4 1   
     8     3     5 1   
     9     3    19 1   
    10     3    20 1   
    11     4     6 1   
    12     4    21 1   
    13     4    22 1   
    14     5     7 1   
    15     5    23 1   
    16     5    24 1   
    17     6     8 1   
    18     6    25 1   
    19     6    26 1   
    20     7     8 1   
    21     7    27 1   
    22     7    28 1   
    23     8    12 1   
    24     8    29 1   
    25     9    14 1   
    26     9    30 1   
    27     9    31 1   
    28     9    32 1   
    29    10    14 1   
    30    10    33 1   
    31    10    34 1   
    32    10    35 1   
    33    11    15 1   
    34    11    36 1   
    35    11    37 1   
    36    12    13 1   
    37    12    38 1   
    38    12    39 1   
    39    13    15 1   
    40    13    40 1   
    41    15    41 1   
    42    15    42 1   
@<TRIPOS>SUBSTRUCTURE
     1 MOL         1 TEMP              0 ****  ****    0 ROOT
