@<TRIPOS>MOLECULE
MOL
   42    42     1     0     0
SMALL
No Charge or Current Charge


@<TRIPOS>ATOM
 1  C1  0.308000  1.604000  -0.364000  C.2  1  MOL  0.636107 
 2  C2  3.248000  -1.784000  -0.254000  C.2  1  MOL  0.735292 
 3  C3  -3.649000  -1.568000  -0.902000  C.3  1  MOL  0.009958 
 4  C4  -3.058000  -0.150000  -0.862000  C.3  1  MOL  0.029158 
 5  C5  -2.655000  -2.607000  -0.361000  C.3  1  MOL  0.029158 
 6  C6  -2.561000  0.210000  0.548000  C.3  1  MOL  0.010699 
 7  C7  -2.162000  -2.230000  1.047000  C.3  1  MOL  0.010699 
 8  C8  -1.548000  -0.813000  1.115000  C.3  1  MOL  0.048889 
 9  C9  -0.176000  3.909000  -0.956000  C.3  1  MOL  -0.071473 
 10  C10  0.258000  3.417000  1.404000  C.3  1  MOL  -0.089282 
 11  C11  2.704000  -0.375000  -0.650000  C.3  1  MOL  -0.079575 
 12  C12  -0.156000  -0.790000  0.441000  C.3  1  MOL  -0.093848 
 13  C13  0.634000  0.509000  0.676000  C.3  1  MOL  -0.079498 
 14  N1  0.160000  2.893000  0.042000  N.am  1  MOL  -0.344286 
 15  N2  2.124000  0.225000  0.607000  N.4  1  MOL  -0.049325 
 16  O1  3.783000  -2.444000  -1.159000  O.co2  1  MOL  -0.693378 
 17  O2  0.217000  1.266000  -1.551000  O.2  1  MOL  -0.560519 
 18  O3  3.072000  -2.079000  0.970000  O.co2  1  MOL  -0.713239 
 19  H1  -4.563000  -1.594000  -0.291000  H  1  MOL  -0.007688 
 20  H2  -3.949000  -1.826000  -1.926000  H  1  MOL  -0.007688 
 21  H3  -2.229000  -0.072000  -1.578000  H  1  MOL  -0.000691 
 22  H4  -3.811000  0.582000  -1.181000  H  1  MOL  -0.000691 
 23  H5  -3.123000  -3.600000  -0.332000  H  1  MOL  -0.000691 
 24  H6  -1.802000  -2.690000  -1.048000  H  1  MOL  -0.000691 
 25  H7  -2.142000  1.224000  0.556000  H  1  MOL  -0.010078 
 26  H8  -3.423000  0.237000  1.230000  H  1  MOL  -0.010078 
 27  H9  -3.015000  -2.267000  1.739000  H  1  MOL  -0.010078 
 28  H10  -1.436000  -2.971000  1.408000  H  1  MOL  -0.010078 
 29  H11  -1.389000  -0.574000  2.177000  H  1  MOL  -0.015052 
 30  H12  -1.093000  4.428000  -0.657000  H  1  MOL  0.087465 
 31  H13  -0.323000  3.428000  -1.920000  H  1  MOL  0.084069 
 32  H14  0.633000  4.644000  -1.030000  H  1  MOL  0.088028 
 33  H15  0.916000  4.292000  1.401000  H  1  MOL  0.094118 
 34  H16  0.672000  2.692000  2.101000  H  1  MOL  0.067267 
 35  H17  -0.730000  3.727000  1.765000  H  1  MOL  0.084095 
 36  H18  1.934000  -0.433000  -1.417000  H  1  MOL  0.078421 
 37  H19  3.507000  0.268000  -1.012000  H  1  MOL  0.078421 
 38  H20  0.434000  -1.613000  0.861000  H  1  MOL  0.064172 
 39  H21  -0.234000  -0.966000  -0.634000  H  1  MOL  0.064172 
 40  H22  0.472000  0.838000  1.702000  H  1  MOL  0.102281 
 41  H23  2.372000  -0.565000  1.281000  H  1  MOL  0.222730 
 42  H24  2.648000  1.058000  0.886000  H  1  MOL  0.222730 
@<TRIPOS>BOND
     1     1    13 1   
     2     1    14 am  
     3     1    17 2   
     4     2    11 1   
     5     2    16 1   
     6     2    18 1   
     7     3     4 1   
     8     3     5 1   
     9     3    19 1   
    10     3    20 1   
    11     4     6 1   
    12     4    21 1   
    13     4    22 1   
    14     5     7 1   
    15     5    23 1   
    16     5    24 1   
    17     6     8 1   
    18     6    25 1   
    19     6    26 1   
    20     7     8 1   
    21     7    27 1   
    22     7    28 1   
    23     8    12 1   
    24     8    29 1   
    25     9    14 1   
    26     9    30 1   
    27     9    31 1   
    28     9    32 1   
    29    10    14 1   
    30    10    33 1   
    31    10    34 1   
    32    10    35 1   
    33    11    15 1   
    34    11    36 1   
    35    11    37 1   
    36    12    13 1   
    37    12    38 1   
    38    12    39 1   
    39    13    15 1   
    40    13    40 1   
    41    15    41 1   
    42    15    42 1   
@<TRIPOS>SUBSTRUCTURE
     1 MOL         1 TEMP              0 ****  ****    0 ROOT
