@<TRIPOS>MOLECULE
MOL
   23    22     1     0     0
SMALL
No Charge or Current Charge


@<TRIPOS>ATOM
      1 C1           1.7710    -0.7300    -0.2580 C.2        1 MOL       0.000000
      2 C2           3.9010     0.1390     0.5500 C.3        1 MOL       0.000000
      3 C3           2.2340     1.7480    -0.2650 C.3        1 MOL       0.000000
      4 C4          -2.7650     0.9010    -1.1630 C.3        1 MOL       0.000000
      5 C5           0.3440    -0.4660    -0.7720 C.3        1 MOL       0.000000
      6 N1          -0.4950     0.1270     0.2720 N.3        1 MOL       0.000000
      7 N2           2.5720     0.3600    -0.0060 N.am       1 MOL       0.000000
      8 O1           2.1510    -1.8800    -0.0870 O.2        1 MOL       0.000000
      9 O2          -2.6320     0.6250     1.4640 O.2        1 MOL       0.000000
     10 O3          -2.4450    -1.4560    -0.0300 O.2        1 MOL       0.000000
     11 S1          -2.1630    -0.0510     0.2550 S.o2       1 MOL       0.000000
     12 H1           4.6740     0.4820    -0.1500 H          1 MOL       0.000000
     13 H2           4.0240    -0.9280     0.7330 H          1 MOL       0.000000
     14 H3           4.0150     0.6910     1.4920 H          1 MOL       0.000000
     15 H4           2.1550     2.3210     0.6710 H          1 MOL       0.000000
     16 H5           1.2930     1.8380    -0.8090 H          1 MOL       0.000000
     17 H6           3.0150     2.2180    -0.8760 H          1 MOL       0.000000
     18 H7          -3.8480     0.7630    -1.2030 H          1 MOL       0.000000
     19 H8          -2.5270     1.9560    -1.0170 H          1 MOL       0.000000
     20 H9          -2.3110     0.5160    -2.0790 H          1 MOL       0.000000
     21 H10          0.3610     0.1270    -1.7010 H          1 MOL       0.000000
     22 H11         -0.0680    -1.4500    -0.9970 H          1 MOL       0.000000
     23 H12         -0.2150     1.0190     0.6670 H          1 MOL       0.000000
@<TRIPOS>BOND
     1     1     5 1   
     2     1     7 am  
     3     1     8 2   
     4     2     7 1   
     5     2    12 1   
     6     2    13 1   
     7     2    14 1   
     8     3     7 1   
     9     3    15 1   
    10     3    16 1   
    11     3    17 1   
    12     4    11 1   
    13     4    18 1   
    14     4    19 1   
    15     4    20 1   
    16     5     6 1   
    17     5    21 1   
    18     5    22 1   
    19     6    11 1   
    20     6    23 1   
    21     9    11 2   
    22    10    11 2   
@<TRIPOS>SUBSTRUCTURE
     1 MOL         1 TEMP              0 ****  ****    0 ROOT
