@<TRIPOS>MOLECULE
MOL
   23    22     1     0     0
SMALL
No Charge or Current Charge


@<TRIPOS>ATOM
 1  C1  1.771000  -0.730000  -0.258000  C.2  1  MOL  0.636107 
 2  C2  3.901000  0.139000  0.550000  C.3  1  MOL  -0.071473 
 3  C3  2.234000  1.748000  -0.265000  C.3  1  MOL  -0.089282 
 4  C4  -2.765000  0.901000  -1.163000  C.3  1  MOL  -0.412669 
 5  C5  0.344000  -0.466000  -0.772000  C.3  1  MOL  -0.270138 
 6  N1  -0.495000  0.127000  0.272000  N.3  1  MOL  -0.497998 
 7  N2  2.572000  0.360000  -0.006000  N.am  1  MOL  -0.344286 
 8  O1  2.151000  -1.880000  -0.087000  O.2  1  MOL  -0.560519 
 9  O2  -2.632000  0.625000  1.464000  O.2  1  MOL  -0.518639 
 10  O3  -2.445000  -1.456000  -0.030000  O.2  1  MOL  -0.504040 
 11  S1  -2.163000  -0.051000  0.255000  S.o2  1  MOL  0.947437 
 12  H1  4.674000  0.482000  -0.150000  H  1  MOL  0.087465 
 13  H2  4.024000  -0.928000  0.733000  H  1  MOL  0.084069 
 14  H3  4.015000  0.691000  1.492000  H  1  MOL  0.088028 
 15  H4  2.155000  2.321000  0.671000  H  1  MOL  0.094118 
 16  H5  1.293000  1.838000  -0.809000  H  1  MOL  0.067267 
 17  H6  3.015000  2.218000  -0.876000  H  1  MOL  0.084095 
 18  H7  -3.848000  0.763000  -1.203000  H  1  MOL  0.187843 
 19  H8  -2.527000  1.956000  -1.017000  H  1  MOL  0.155917 
 20  H9  -2.311000  0.516000  -2.079000  H  1  MOL  0.144151 
 21  H10  0.361000  0.127000  -1.701000  H  1  MOL  0.173046 
 22  H11  -0.068000  -1.450000  -0.997000  H  1  MOL  0.173046 
 23  H12  -0.215000  1.019000  0.667000  H  1  MOL  0.346457 
@<TRIPOS>BOND
     1     1     5 1   
     2     1     7 am  
     3     1     8 2   
     4     2     7 1   
     5     2    12 1   
     6     2    13 1   
     7     2    14 1   
     8     3     7 1   
     9     3    15 1   
    10     3    16 1   
    11     3    17 1   
    12     4    11 1   
    13     4    18 1   
    14     4    19 1   
    15     4    20 1   
    16     5     6 1   
    17     5    21 1   
    18     5    22 1   
    19     6    11 1   
    20     6    23 1   
    21     9    11 2   
    22    10    11 2   
@<TRIPOS>SUBSTRUCTURE
     1 MOL         1 TEMP              0 ****  ****    0 ROOT
