@<TRIPOS>MOLECULE
MOL
   26    25     1     0     0
SMALL
No Charge or Current Charge


@<TRIPOS>ATOM
 1  C1  1.463000  -0.244000  -0.470000  C.2  1  MOL  0.636107 
 2  C2  0.669000  2.097000  -1.004000  C.3  1  MOL  -0.064538 
 3  C3  3.680000  -1.099000  0.046000  C.3  1  MOL  -0.071473 
 4  C4  2.813000  0.760000  1.398000  C.3  1  MOL  -0.089282 
 5  C5  -3.462000  0.767000  -0.067000  C.3  1  MOL  -0.412669 
 6  C6  0.331000  0.792000  -0.262000  C.3  1  MOL  -0.242643 
 7  N1  -0.907000  0.214000  -0.809000  N.3  1  MOL  -0.497998 
 8  N2  2.595000  -0.154000  0.287000  N.am  1  MOL  -0.344286 
 9  O1  1.326000  -1.088000  -1.357000  O.2  1  MOL  -0.560519 
 10  O2  -1.649000  -0.090000  1.651000  O.2  1  MOL  -0.518639 
 11  O3  -2.483000  -1.688000  -0.166000  O.2  1  MOL  -0.504040 
 12  S1  -2.087000  -0.347000  0.271000  S.o2  1  MOL  0.947437 
 13  H1  0.813000  1.897000  -2.070000  H  1  MOL  0.060779 
 14  H2  -0.153000  2.810000  -0.896000  H  1  MOL  0.060779 
 15  H3  1.585000  2.556000  -0.614000  H  1  MOL  0.060779 
 16  H4  4.610000  -0.558000  -0.168000  H  1  MOL  0.087465 
 17  H5  3.414000  -1.725000  -0.803000  H  1  MOL  0.084069 
 18  H6  3.839000  -1.729000  0.930000  H  1  MOL  0.088028 
 19  H7  2.959000  0.198000  2.329000  H  1  MOL  0.094118 
 20  H8  1.970000  1.434000  1.538000  H  1  MOL  0.067267 
 21  H9  3.711000  1.365000  1.220000  H  1  MOL  0.084095 
 22  H10  -4.286000  0.469000  0.585000  H  1  MOL  0.187843 
 23  H11  -3.153000  1.790000  0.154000  H  1  MOL  0.155917 
 24  H12  -3.746000  0.664000  -1.115000  H  1  MOL  0.144151 
 25  H13  0.163000  0.988000  0.798000  H  1  MOL  0.200798 
 26  H14  -0.662000  -0.552000  -1.446000  H  1  MOL  0.346457 
@<TRIPOS>BOND
     1     1     6 1   
     2     1     8 am  
     3     1     9 2   
     4     2     6 1   
     5     2    13 1   
     6     2    14 1   
     7     2    15 1   
     8     3     8 1   
     9     3    16 1   
    10     3    17 1   
    11     3    18 1   
    12     4     8 1   
    13     4    19 1   
    14     4    20 1   
    15     4    21 1   
    16     5    12 1   
    17     5    22 1   
    18     5    23 1   
    19     5    24 1   
    20     6     7 1   
    21     6    25 1   
    22     7    12 1   
    23     7    26 1   
    24    10    12 2   
    25    11    12 2   
@<TRIPOS>SUBSTRUCTURE
     1 MOL         1 TEMP              0 ****  ****    0 ROOT
