@<TRIPOS>MOLECULE
MOL
   26    25     1     0     0
SMALL
No Charge or Current Charge


@<TRIPOS>ATOM
      1 C1           1.4630    -0.2440    -0.4700 C.2        1 MOL       0.000000
      2 C2           0.6690     2.0970    -1.0040 C.3        1 MOL       0.000000
      3 C3           3.6800    -1.0990     0.0460 C.3        1 MOL       0.000000
      4 C4           2.8130     0.7600     1.3980 C.3        1 MOL       0.000000
      5 C5          -3.4620     0.7670    -0.0670 C.3        1 MOL       0.000000
      6 C6           0.3310     0.7920    -0.2620 C.3        1 MOL       0.000000
      7 N1          -0.9070     0.2140    -0.8090 N.3        1 MOL       0.000000
      8 N2           2.5950    -0.1540     0.2870 N.am       1 MOL       0.000000
      9 O1           1.3260    -1.0880    -1.3570 O.2        1 MOL       0.000000
     10 O2          -1.6490    -0.0900     1.6510 O.2        1 MOL       0.000000
     11 O3          -2.4830    -1.6880    -0.1660 O.2        1 MOL       0.000000
     12 S1          -2.0870    -0.3470     0.2710 S.o2       1 MOL       0.000000
     13 H1           0.8130     1.8970    -2.0700 H          1 MOL       0.000000
     14 H2          -0.1530     2.8100    -0.8960 H          1 MOL       0.000000
     15 H3           1.5850     2.5560    -0.6140 H          1 MOL       0.000000
     16 H4           4.6100    -0.5580    -0.1680 H          1 MOL       0.000000
     17 H5           3.4140    -1.7250    -0.8030 H          1 MOL       0.000000
     18 H6           3.8390    -1.7290     0.9300 H          1 MOL       0.000000
     19 H7           2.9590     0.1980     2.3290 H          1 MOL       0.000000
     20 H8           1.9700     1.4340     1.5380 H          1 MOL       0.000000
     21 H9           3.7110     1.3650     1.2200 H          1 MOL       0.000000
     22 H10         -4.2860     0.4690     0.5850 H          1 MOL       0.000000
     23 H11         -3.1530     1.7900     0.1540 H          1 MOL       0.000000
     24 H12         -3.7460     0.6640    -1.1150 H          1 MOL       0.000000
     25 H13          0.1630     0.9880     0.7980 H          1 MOL       0.000000
     26 H14         -0.6620    -0.5520    -1.4460 H          1 MOL       0.000000
@<TRIPOS>BOND
     1     1     6 1   
     2     1     8 am  
     3     1     9 2   
     4     2     6 1   
     5     2    13 1   
     6     2    14 1   
     7     2    15 1   
     8     3     8 1   
     9     3    16 1   
    10     3    17 1   
    11     3    18 1   
    12     4     8 1   
    13     4    19 1   
    14     4    20 1   
    15     4    21 1   
    16     5    12 1   
    17     5    22 1   
    18     5    23 1   
    19     5    24 1   
    20     6     7 1   
    21     6    25 1   
    22     7    12 1   
    23     7    26 1   
    24    10    12 2   
    25    11    12 2   
@<TRIPOS>SUBSTRUCTURE
     1 MOL         1 TEMP              0 ****  ****    0 ROOT
