@<TRIPOS>MOLECULE
MOL
   40    39     1     0     0
SMALL
No Charge or Current Charge


@<TRIPOS>ATOM
      1 C1           0.9110     1.6390    -0.4210 C.2        1 MOL       0.000000
      2 C2          -5.4240    -0.2880     0.2150 C.cat      1 MOL       0.000000
      3 C3           2.0670     3.7730    -0.2970 C.3        1 MOL       0.000000
      4 C4           2.9130     1.9110     1.0830 C.3        1 MOL       0.000000
      5 C5           2.8980    -3.1540    -0.5500 C.3        1 MOL       0.000000
      6 C6          -1.7040     0.0720     0.1750 C.3        1 MOL       0.000000
      7 C7          -0.4820    -0.4790    -0.5720 C.3        1 MOL       0.000000
      8 C8          -3.0080    -0.4860    -0.3980 C.3        1 MOL       0.000000
      9 C9           0.8470     0.1240    -0.0850 C.3        1 MOL       0.000000
     10 N1          -6.3660     0.2550     1.0060 N.3        1 MOL       0.000000
     11 N2          -4.1640     0.1340     0.2830 N.3        1 MOL       0.000000
     12 N3           1.9760    -0.5770    -0.7290 N.3        1 MOL       0.000000
     13 N4           1.9170     2.3790     0.1200 N.am       1 MOL       0.000000
     14 N5          -5.7690    -1.2720    -0.6280 N.3        1 MOL       0.000000
     15 O1           0.0690     2.1150    -1.1880 O.2        1 MOL       0.000000
     16 O2           2.5000    -1.5900     1.5530 O.2        1 MOL       0.000000
     17 O3           4.4040    -1.0350    -0.0740 O.2        1 MOL       0.000000
     18 S1           3.0480    -1.5210     0.1920 S.o2       1 MOL       0.000000
     19 H1           1.9120     4.4430     0.5570 H          1 MOL       0.000000
     20 H2           1.3330     3.9920    -1.0700 H          1 MOL       0.000000
     21 H3           3.0780     3.9370    -0.6880 H          1 MOL       0.000000
     22 H4           2.5940     1.0040     1.5930 H          1 MOL       0.000000
     23 H5           3.0560     2.6890     1.8410 H          1 MOL       0.000000
     24 H6           3.8770     1.7150     0.6000 H          1 MOL       0.000000
     25 H7           3.5840    -3.8120    -0.0110 H          1 MOL       0.000000
     26 H8           1.8690    -3.5000    -0.4410 H          1 MOL       0.000000
     27 H9           3.1830    -3.0890    -1.6020 H          1 MOL       0.000000
     28 H10         -1.6450    -0.1740     1.2440 H          1 MOL       0.000000
     29 H11         -1.7090     1.1620     0.0690 H          1 MOL       0.000000
     30 H12         -0.4190    -1.5650    -0.4390 H          1 MOL       0.000000
     31 H13         -0.5800    -0.2740    -1.6420 H          1 MOL       0.000000
     32 H14         -3.0610    -0.2730    -1.4730 H          1 MOL       0.000000
     33 H15         -3.0670    -1.5700    -0.2490 H          1 MOL       0.000000
     34 H16          0.9300    -0.0320     0.9950 H          1 MOL       0.000000
     35 H17         -6.1190     0.8590     1.7780 H          1 MOL       0.000000
     36 H18         -7.3500     0.1290     0.8150 H          1 MOL       0.000000
     37 H19         -3.9890     1.0130     0.7550 H          1 MOL       0.000000
     38 H20          2.5030    -0.0270    -1.4030 H          1 MOL       0.000000
     39 H21         -6.6580    -1.7440    -0.5490 H          1 MOL       0.000000
     40 H22         -5.1410    -1.5790    -1.3560 H          1 MOL       0.000000
@<TRIPOS>BOND
     1     1     9 1   
     2     1    13 am  
     3     1    15 2   
     4     2    10 2   
     5     2    11 1   
     6     2    14 1   
     7     3    13 1   
     8     3    19 1   
     9     3    20 1   
    10     3    21 1   
    11     4    13 1   
    12     4    22 1   
    13     4    23 1   
    14     4    24 1   
    15     5    18 1   
    16     5    25 1   
    17     5    26 1   
    18     5    27 1   
    19     6     7 1   
    20     6     8 1   
    21     6    28 1   
    22     6    29 1   
    23     7     9 1   
    24     7    30 1   
    25     7    31 1   
    26     8    11 1   
    27     8    32 1   
    28     8    33 1   
    29     9    12 1   
    30     9    34 1   
    31    10    35 1   
    32    10    36 1   
    33    11    37 1   
    34    12    18 1   
    35    12    38 1   
    36    14    39 1   
    37    14    40 1   
    38    16    18 2   
    39    17    18 2   
@<TRIPOS>SUBSTRUCTURE
     1 MOL         1 TEMP              0 ****  ****    0 ROOT
