@<TRIPOS>MOLECULE
MOL
   40    39     1     0     0
SMALL
No Charge or Current Charge


@<TRIPOS>ATOM
 1  C1  0.911000  1.639000  -0.421000  C.2  1  MOL  0.636107 
 2  C2  -5.424000  -0.288000  0.215000  C.cat  1  MOL  0.769851 
 3  C3  2.067000  3.773000  -0.297000  C.3  1  MOL  -0.071473 
 4  C4  2.913000  1.911000  1.083000  C.3  1  MOL  -0.089282 
 5  C5  2.898000  -3.154000  -0.550000  C.3  1  MOL  -0.412669 
 6  C6  -1.704000  0.072000  0.175000  C.3  1  MOL  -0.069101 
 7  C7  -0.482000  -0.479000  -0.572000  C.3  1  MOL  -0.377967 
 8  C8  -3.008000  -0.486000  -0.398000  C.3  1  MOL  -0.130240 
 9  C9  0.847000  0.124000  -0.085000  C.3  1  MOL  0.087449 
 10  N1  -6.366000  0.255000  1.006000  N.3  1  MOL  -0.951107 
 11  N2  -4.164000  0.134000  0.283000  N.3  1  MOL  -0.457611 
 12  N3  1.976000  -0.577000  -0.729000  N.3  1  MOL  -0.497998 
 13  N4  1.917000  2.379000  0.120000  N.am  1  MOL  -0.344286 
 14  N5  -5.769000  -1.272000  -0.628000  N.3  1  MOL  -0.805681 
 15  O1  0.069000  2.115000  -1.188000  O.2  1  MOL  -0.560519 
 16  O2  2.500000  -1.590000  1.553000  O.2  1  MOL  -0.518639 
 17  O3  4.404000  -1.035000  -0.074000  O.2  1  MOL  -0.504040 
 18  S1  3.048000  -1.521000  0.192000  S.o2  1  MOL  0.947437 
 19  H1  1.912000  4.443000  0.557000  H  1  MOL  0.087465 
 20  H2  1.333000  3.992000  -1.070000  H  1  MOL  0.084069 
 21  H3  3.078000  3.937000  -0.688000  H  1  MOL  0.088028 
 22  H4  2.594000  1.004000  1.593000  H  1  MOL  0.094118 
 23  H5  3.056000  2.689000  1.841000  H  1  MOL  0.067267 
 24  H6  3.877000  1.715000  0.600000  H  1  MOL  0.084095 
 25  H7  3.584000  -3.812000  -0.011000  H  1  MOL  0.187843 
 26  H8  1.869000  -3.500000  -0.441000  H  1  MOL  0.155917 
 27  H9  3.183000  -3.089000  -1.602000  H  1  MOL  0.144151 
 28  H10  -1.645000  -0.174000  1.244000  H  1  MOL  0.095411 
 29  H11  -1.709000  1.162000  0.069000  H  1  MOL  0.095411 
 30  H12  -0.419000  -1.565000  -0.439000  H  1  MOL  0.158981 
 31  H13  -0.580000  -0.274000  -1.642000  H  1  MOL  0.158981 
 32  H14  -3.061000  -0.273000  -1.473000  H  1  MOL  0.127329 
 33  H15  -3.067000  -1.570000  -0.249000  H  1  MOL  0.127329 
 34  H16  0.930000  -0.032000  0.995000  H  1  MOL  0.107900 
 35  H17  -6.119000  0.859000  1.778000  H  1  MOL  0.471460 
 36  H18  -7.350000  0.129000  0.815000  H  1  MOL  0.471460 
 37  H19  -3.989000  1.013000  0.755000  H  1  MOL  0.348690 
 38  H20  2.503000  -0.027000  -1.403000  H  1  MOL  0.346457 
 39  H21  -6.658000  -1.744000  -0.549000  H  1  MOL  0.423704 
 40  H22  -5.141000  -1.579000  -1.356000  H  1  MOL  0.423704 
@<TRIPOS>BOND
     1     1     9 1   
     2     1    13 am  
     3     1    15 2   
     4     2    10 2   
     5     2    11 1   
     6     2    14 1   
     7     3    13 1   
     8     3    19 1   
     9     3    20 1   
    10     3    21 1   
    11     4    13 1   
    12     4    22 1   
    13     4    23 1   
    14     4    24 1   
    15     5    18 1   
    16     5    25 1   
    17     5    26 1   
    18     5    27 1   
    19     6     7 1   
    20     6     8 1   
    21     6    28 1   
    22     6    29 1   
    23     7     9 1   
    24     7    30 1   
    25     7    31 1   
    26     8    11 1   
    27     8    32 1   
    28     8    33 1   
    29     9    12 1   
    30     9    34 1   
    31    10    35 1   
    32    10    36 1   
    33    11    37 1   
    34    12    18 1   
    35    12    38 1   
    36    14    39 1   
    37    14    40 1   
    38    16    18 2   
    39    17    18 2   
@<TRIPOS>SUBSTRUCTURE
     1 MOL         1 TEMP              0 ****  ****    0 ROOT
