@<TRIPOS>MOLECULE
MOL
   42    42     1     0     0
SMALL
No Charge or Current Charge


@<TRIPOS>ATOM
      1 C1           0.6600     1.5290    -0.6500 C.2        1 MOL       0.000000
      2 C2           3.5270    -1.7150     0.3380 C.2        1 MOL       0.000000
      3 C3          -4.5530    -0.9930     0.8150 C.3        1 MOL       0.000000
      4 C4          -4.4380    -0.4390    -0.6120 C.3        1 MOL       0.000000
      5 C5          -3.3870    -0.5110     1.6910 C.3        1 MOL       0.000000
      6 C6          -3.0760    -0.7740    -1.2380 C.3        1 MOL       0.000000
      7 C7          -2.0260    -0.8470     1.0600 C.3        1 MOL       0.000000
      8 C8          -1.8980    -0.2860    -0.3700 C.3        1 MOL       0.000000
      9 C9           0.8220     3.7900     0.2190 C.3        1 MOL       0.000000
     10 C10          1.2840     1.8720     1.7450 C.3        1 MOL       0.000000
     11 C11          2.3820    -1.8830    -0.7160 C.3        1 MOL       0.000000
     12 C12         -0.5630    -0.6540    -1.0480 C.3        1 MOL       0.000000
     13 C13          0.6700     0.0030    -0.4180 C.3        1 MOL       0.000000
     14 N1           0.8970     2.3410     0.4070 N.am       1 MOL       0.000000
     15 N2           1.9380    -0.4930    -1.0750 N.4        1 MOL       0.000000
     16 O1           3.9640    -2.7560     0.8490 O.co2      1 MOL       0.000000
     17 O2           0.4530     1.9330    -1.8000 O.2        1 MOL       0.000000
     18 O3           3.8750    -0.5070     0.5270 O.co2      1 MOL       0.000000
     19 H1          -5.5110    -0.6990     1.2620 H          1 MOL       0.000000
     20 H2          -4.5470    -2.0930     0.7790 H          1 MOL       0.000000
     21 H3          -5.2450    -0.8340    -1.2420 H          1 MOL       0.000000
     22 H4          -4.5650     0.6530    -0.5880 H          1 MOL       0.000000
     23 H5          -3.4620     0.5780     1.8270 H          1 MOL       0.000000
     24 H6          -3.4520    -0.9560     2.6920 H          1 MOL       0.000000
     25 H7          -2.9940    -1.8640    -1.3680 H          1 MOL       0.000000
     26 H8          -3.0030    -0.3340    -2.2410 H          1 MOL       0.000000
     27 H9          -1.2240    -0.4660     1.7050 H          1 MOL       0.000000
     28 H10         -1.9020    -1.9400     1.0230 H          1 MOL       0.000000
     29 H11         -1.9660     0.8120    -0.3140 H          1 MOL       0.000000
     30 H12          0.1620     4.2260     0.9760 H          1 MOL       0.000000
     31 H13          0.4280     3.9960    -0.7750 H          1 MOL       0.000000
     32 H14          1.8160     4.2410     0.3160 H          1 MOL       0.000000
     33 H15          1.6910     2.7240     2.2920 H          1 MOL       0.000000
     34 H16          2.0670     1.1110     1.6880 H          1 MOL       0.000000
     35 H17          0.4270     1.4840     2.3060 H          1 MOL       0.000000
     36 H18          1.5500    -2.4580    -0.3140 H          1 MOL       0.000000
     37 H19          2.7530    -2.3770    -1.6160 H          1 MOL       0.000000
     38 H20         -0.4410    -1.7440    -1.0250 H          1 MOL       0.000000
     39 H21         -0.5970    -0.3500    -2.1000 H          1 MOL       0.000000
     40 H22          0.7680    -0.2670     0.6320 H          1 MOL       0.000000
     41 H23          2.7610     0.0390    -0.6600 H          1 MOL       0.000000
     42 H24          1.8830    -0.3280    -2.0840 H          1 MOL       0.000000
@<TRIPOS>BOND
     1     1    13 1   
     2     1    14 am  
     3     1    17 2   
     4     2    11 1   
     5     2    16 1   
     6     2    18 1   
     7     3     4 1   
     8     3     5 1   
     9     3    19 1   
    10     3    20 1   
    11     4     6 1   
    12     4    21 1   
    13     4    22 1   
    14     5     7 1   
    15     5    23 1   
    16     5    24 1   
    17     6     8 1   
    18     6    25 1   
    19     6    26 1   
    20     7     8 1   
    21     7    27 1   
    22     7    28 1   
    23     8    12 1   
    24     8    29 1   
    25     9    14 1   
    26     9    30 1   
    27     9    31 1   
    28     9    32 1   
    29    10    14 1   
    30    10    33 1   
    31    10    34 1   
    32    10    35 1   
    33    11    15 1   
    34    11    36 1   
    35    11    37 1   
    36    12    13 1   
    37    12    38 1   
    38    12    39 1   
    39    13    15 1   
    40    13    40 1   
    41    15    41 1   
    42    15    42 1   
@<TRIPOS>SUBSTRUCTURE
     1 MOL         1 TEMP              0 ****  ****    0 ROOT
