@<TRIPOS>MOLECULE
MOL
   42    42     1     0     0
SMALL
No Charge or Current Charge


@<TRIPOS>ATOM
 1  C1  0.660000  1.529000  -0.650000  C.2  1  MOL  0.636107 
 2  C2  3.527000  -1.715000  0.338000  C.2  1  MOL  0.735292 
 3  C3  -4.553000  -0.993000  0.815000  C.3  1  MOL  0.009958 
 4  C4  -4.438000  -0.439000  -0.612000  C.3  1  MOL  0.029158 
 5  C5  -3.387000  -0.511000  1.691000  C.3  1  MOL  0.029158 
 6  C6  -3.076000  -0.774000  -1.238000  C.3  1  MOL  0.010699 
 7  C7  -2.026000  -0.847000  1.060000  C.3  1  MOL  0.010699 
 8  C8  -1.898000  -0.286000  -0.370000  C.3  1  MOL  0.048889 
 9  C9  0.822000  3.790000  0.219000  C.3  1  MOL  -0.071473 
 10  C10  1.284000  1.872000  1.745000  C.3  1  MOL  -0.089282 
 11  C11  2.382000  -1.883000  -0.716000  C.3  1  MOL  -0.079575 
 12  C12  -0.563000  -0.654000  -1.048000  C.3  1  MOL  -0.093848 
 13  C13  0.670000  0.003000  -0.418000  C.3  1  MOL  -0.079498 
 14  N1  0.897000  2.341000  0.407000  N.am  1  MOL  -0.344286 
 15  N2  1.938000  -0.493000  -1.075000  N.4  1  MOL  -0.049325 
 16  O1  3.964000  -2.756000  0.849000  O.co2  1  MOL  -0.693378 
 17  O2  0.453000  1.933000  -1.800000  O.2  1  MOL  -0.560519 
 18  O3  3.875000  -0.507000  0.527000  O.co2  1  MOL  -0.713239 
 19  H1  -5.511000  -0.699000  1.262000  H  1  MOL  -0.007688 
 20  H2  -4.547000  -2.093000  0.779000  H  1  MOL  -0.007688 
 21  H3  -5.245000  -0.834000  -1.242000  H  1  MOL  -0.000691 
 22  H4  -4.565000  0.653000  -0.588000  H  1  MOL  -0.000691 
 23  H5  -3.462000  0.578000  1.827000  H  1  MOL  -0.000691 
 24  H6  -3.452000  -0.956000  2.692000  H  1  MOL  -0.000691 
 25  H7  -2.994000  -1.864000  -1.368000  H  1  MOL  -0.010078 
 26  H8  -3.003000  -0.334000  -2.241000  H  1  MOL  -0.010078 
 27  H9  -1.224000  -0.466000  1.705000  H  1  MOL  -0.010078 
 28  H10  -1.902000  -1.940000  1.023000  H  1  MOL  -0.010078 
 29  H11  -1.966000  0.812000  -0.314000  H  1  MOL  -0.015052 
 30  H12  0.162000  4.226000  0.976000  H  1  MOL  0.087465 
 31  H13  0.428000  3.996000  -0.775000  H  1  MOL  0.084069 
 32  H14  1.816000  4.241000  0.316000  H  1  MOL  0.088028 
 33  H15  1.691000  2.724000  2.292000  H  1  MOL  0.094118 
 34  H16  2.067000  1.111000  1.688000  H  1  MOL  0.067267 
 35  H17  0.427000  1.484000  2.306000  H  1  MOL  0.084095 
 36  H18  1.550000  -2.458000  -0.314000  H  1  MOL  0.078421 
 37  H19  2.753000  -2.377000  -1.616000  H  1  MOL  0.078421 
 38  H20  -0.441000  -1.744000  -1.025000  H  1  MOL  0.064172 
 39  H21  -0.597000  -0.350000  -2.100000  H  1  MOL  0.064172 
 40  H22  0.768000  -0.267000  0.632000  H  1  MOL  0.102281 
 41  H23  2.761000  0.039000  -0.660000  H  1  MOL  0.222730 
 42  H24  1.883000  -0.328000  -2.084000  H  1  MOL  0.222730 
@<TRIPOS>BOND
     1     1    13 1   
     2     1    14 am  
     3     1    17 2   
     4     2    11 1   
     5     2    16 1   
     6     2    18 1   
     7     3     4 1   
     8     3     5 1   
     9     3    19 1   
    10     3    20 1   
    11     4     6 1   
    12     4    21 1   
    13     4    22 1   
    14     5     7 1   
    15     5    23 1   
    16     5    24 1   
    17     6     8 1   
    18     6    25 1   
    19     6    26 1   
    20     7     8 1   
    21     7    27 1   
    22     7    28 1   
    23     8    12 1   
    24     8    29 1   
    25     9    14 1   
    26     9    30 1   
    27     9    31 1   
    28     9    32 1   
    29    10    14 1   
    30    10    33 1   
    31    10    34 1   
    32    10    35 1   
    33    11    15 1   
    34    11    36 1   
    35    11    37 1   
    36    12    13 1   
    37    12    38 1   
    38    12    39 1   
    39    13    15 1   
    40    13    40 1   
    41    15    41 1   
    42    15    42 1   
@<TRIPOS>SUBSTRUCTURE
     1 MOL         1 TEMP              0 ****  ****    0 ROOT
