@<TRIPOS>MOLECULE
MOL
   47    47     1     0     0
SMALL
No Charge or Current Charge


@<TRIPOS>ATOM
 1  C1  3.050000  -0.499000  -0.138000  C.2  1  MOL  0.636107 
 2  C2  -0.982000  1.723000  -0.477000  C.2  1  MOL  0.636107 
 3  C3  -3.493000  -2.979000  0.350000  C.3  1  MOL  -0.045365 
 4  C4  -2.033000  -3.292000  -0.002000  C.3  1  MOL  -0.096573 
 5  C5  -3.936000  -1.643000  -0.261000  C.3  1  MOL  -0.096573 
 6  C6  -1.096000  -2.138000  0.393000  C.3  1  MOL  -0.037877 
 7  C7  -2.998000  -0.491000  0.141000  C.3  1  MOL  -0.037877 
 8  C8  -1.538000  -0.803000  -0.250000  C.3  1  MOL  0.006702 
 9  C9  5.318000  -1.315000  0.135000  C.3  1  MOL  -0.071473 
 10  C10  4.826000  1.059000  0.644000  C.3  1  MOL  -0.089282 
 11  C11  -2.128000  3.855000  -0.353000  C.3  1  MOL  -0.071473 
 12  C12  -2.095000  2.430000  1.658000  C.3  1  MOL  -0.089282 
 13  C13  2.011000  0.651000  -0.065000  C.3  1  MOL  0.659252 
 14  C14  -0.550000  0.346000  0.097000  C.3  1  MOL  0.501435 
 15  N1  4.322000  -0.240000  0.203000  N.am  1  MOL  -0.344286 
 16  N2  -1.687000  2.599000  0.265000  N.am  1  MOL  -0.344286 
 17  N3  0.748000  0.083000  -0.630000  N.4  1  MOL  -1.397224 
 18  O1  2.630000  -1.605000  -0.503000  O.2  1  MOL  -0.560519 
 19  O2  -0.633000  1.941000  -1.647000  O.2  1  MOL  -0.560519 
 20  H1  -4.146000  -3.787000  0.002000  H  1  MOL  0.048234 
 21  H2  -3.604000  -2.935000  1.443000  H  1  MOL  0.048234 
 22  H3  -1.705000  -4.211000  0.496000  H  1  MOL  0.053107 
 23  H4  -1.945000  -3.473000  -1.083000  H  1  MOL  0.053107 
 24  H5  -3.953000  -1.725000  -1.357000  H  1  MOL  0.053107 
 25  H6  -4.959000  -1.399000  0.048000  H  1  MOL  0.053107 
 26  H7  -1.108000  -2.018000  1.487000  H  1  MOL  0.026478 
 27  H8  -0.065000  -2.405000  0.124000  H  1  MOL  0.026478 
 28  H9  -3.333000  0.438000  -0.334000  H  1  MOL  0.026478 
 29  H10  -3.061000  -0.343000  1.228000  H  1  MOL  0.026478 
 30  H11  -1.513000  -0.908000  -1.346000  H  1  MOL  0.017045 
 31  H12  6.122000  -1.028000  -0.550000  H  1  MOL  0.087465 
 32  H13  4.837000  -2.224000  -0.221000  H  1  MOL  0.084069 
 33  H14  5.744000  -1.487000  1.130000  H  1  MOL  0.088028 
 34  H15  5.296000  0.957000  1.628000  H  1  MOL  0.094118 
 35  H16  4.029000  1.798000  0.721000  H  1  MOL  0.067267 
 36  H17  5.578000  1.430000  -0.062000  H  1  MOL  0.084095 
 37  H18  -3.221000  3.917000  -0.322000  H  1  MOL  0.087465 
 38  H19  -1.787000  3.884000  -1.386000  H  1  MOL  0.084069 
 39  H20  -1.711000  4.704000  0.200000  H  1  MOL  0.088028 
 40  H21  -1.742000  3.284000  2.245000  H  1  MOL  0.094118 
 41  H22  -1.692000  1.518000  2.094000  H  1  MOL  0.067267 
 42  H23  -3.188000  2.390000  1.730000  H  1  MOL  0.084095 
 43  H24  1.837000  0.960000  0.969000  H  1  MOL  -0.037741 
 44  H25  2.296000  1.527000  -0.649000  H  1  MOL  -0.037741 
 45  H26  -0.329000  0.357000  1.166000  H  1  MOL  -0.008587 
 46  H27  0.562000  0.509000  -1.562000  H  1  MOL  0.522570 
 47  H28  0.965000  -0.934000  -0.734000  H  1  MOL  0.522570 
@<TRIPOS>BOND
     1     1    13 1   
     2     1    15 am  
     3     1    18 2   
     4     2    14 1   
     5     2    16 am  
     6     2    19 2   
     7     3     4 1   
     8     3     5 1   
     9     3    20 1   
    10     3    21 1   
    11     4     6 1   
    12     4    22 1   
    13     4    23 1   
    14     5     7 1   
    15     5    24 1   
    16     5    25 1   
    17     6     8 1   
    18     6    26 1   
    19     6    27 1   
    20     7     8 1   
    21     7    28 1   
    22     7    29 1   
    23     8    14 1   
    24     8    30 1   
    25     9    15 1   
    26     9    31 1   
    27     9    32 1   
    28     9    33 1   
    29    10    15 1   
    30    10    34 1   
    31    10    35 1   
    32    10    36 1   
    33    11    16 1   
    34    11    37 1   
    35    11    38 1   
    36    11    39 1   
    37    12    16 1   
    38    12    40 1   
    39    12    41 1   
    40    12    42 1   
    41    13    17 1   
    42    13    43 1   
    43    13    44 1   
    44    14    17 1   
    45    14    45 1   
    46    17    46 1   
    47    17    47 1   
@<TRIPOS>SUBSTRUCTURE
     1 MOL         1 TEMP              0 ****  ****    0 ROOT
