@<TRIPOS>MOLECULE
MOL
   47    47     1     0     0
SMALL
No Charge or Current Charge


@<TRIPOS>ATOM
      1 C1           3.0500    -0.4990    -0.1380 C.2        1 MOL       0.000000
      2 C2          -0.9820     1.7230    -0.4770 C.2        1 MOL       0.000000
      3 C3          -3.4930    -2.9790     0.3500 C.3        1 MOL       0.000000
      4 C4          -2.0330    -3.2920    -0.0020 C.3        1 MOL       0.000000
      5 C5          -3.9360    -1.6430    -0.2610 C.3        1 MOL       0.000000
      6 C6          -1.0960    -2.1380     0.3930 C.3        1 MOL       0.000000
      7 C7          -2.9980    -0.4910     0.1410 C.3        1 MOL       0.000000
      8 C8          -1.5380    -0.8030    -0.2500 C.3        1 MOL       0.000000
      9 C9           5.3180    -1.3150     0.1350 C.3        1 MOL       0.000000
     10 C10          4.8260     1.0590     0.6440 C.3        1 MOL       0.000000
     11 C11         -2.1280     3.8550    -0.3530 C.3        1 MOL       0.000000
     12 C12         -2.0950     2.4300     1.6580 C.3        1 MOL       0.000000
     13 C13          2.0110     0.6510    -0.0650 C.3        1 MOL       0.000000
     14 C14         -0.5500     0.3460     0.0970 C.3        1 MOL       0.000000
     15 N1           4.3220    -0.2400     0.2030 N.am       1 MOL       0.000000
     16 N2          -1.6870     2.5990     0.2650 N.am       1 MOL       0.000000
     17 N3           0.7480     0.0830    -0.6300 N.4        1 MOL       0.000000
     18 O1           2.6300    -1.6050    -0.5030 O.2        1 MOL       0.000000
     19 O2          -0.6330     1.9410    -1.6470 O.2        1 MOL       0.000000
     20 H1          -4.1460    -3.7870     0.0020 H          1 MOL       0.000000
     21 H2          -3.6040    -2.9350     1.4430 H          1 MOL       0.000000
     22 H3          -1.7050    -4.2110     0.4960 H          1 MOL       0.000000
     23 H4          -1.9450    -3.4730    -1.0830 H          1 MOL       0.000000
     24 H5          -3.9530    -1.7250    -1.3570 H          1 MOL       0.000000
     25 H6          -4.9590    -1.3990     0.0480 H          1 MOL       0.000000
     26 H7          -1.1080    -2.0180     1.4870 H          1 MOL       0.000000
     27 H8          -0.0650    -2.4050     0.1240 H          1 MOL       0.000000
     28 H9          -3.3330     0.4380    -0.3340 H          1 MOL       0.000000
     29 H10         -3.0610    -0.3430     1.2280 H          1 MOL       0.000000
     30 H11         -1.5130    -0.9080    -1.3460 H          1 MOL       0.000000
     31 H12          6.1220    -1.0280    -0.5500 H          1 MOL       0.000000
     32 H13          4.8370    -2.2240    -0.2210 H          1 MOL       0.000000
     33 H14          5.7440    -1.4870     1.1300 H          1 MOL       0.000000
     34 H15          5.2960     0.9570     1.6280 H          1 MOL       0.000000
     35 H16          4.0290     1.7980     0.7210 H          1 MOL       0.000000
     36 H17          5.5780     1.4300    -0.0620 H          1 MOL       0.000000
     37 H18         -3.2210     3.9170    -0.3220 H          1 MOL       0.000000
     38 H19         -1.7870     3.8840    -1.3860 H          1 MOL       0.000000
     39 H20         -1.7110     4.7040     0.2000 H          1 MOL       0.000000
     40 H21         -1.7420     3.2840     2.2450 H          1 MOL       0.000000
     41 H22         -1.6920     1.5180     2.0940 H          1 MOL       0.000000
     42 H23         -3.1880     2.3900     1.7300 H          1 MOL       0.000000
     43 H24          1.8370     0.9600     0.9690 H          1 MOL       0.000000
     44 H25          2.2960     1.5270    -0.6490 H          1 MOL       0.000000
     45 H26         -0.3290     0.3570     1.1660 H          1 MOL       0.000000
     46 H27          0.5620     0.5090    -1.5620 H          1 MOL       0.000000
     47 H28          0.9650    -0.9340    -0.7340 H          1 MOL       0.000000
@<TRIPOS>BOND
     1     1    13 1   
     2     1    15 am  
     3     1    18 2   
     4     2    14 1   
     5     2    16 am  
     6     2    19 2   
     7     3     4 1   
     8     3     5 1   
     9     3    20 1   
    10     3    21 1   
    11     4     6 1   
    12     4    22 1   
    13     4    23 1   
    14     5     7 1   
    15     5    24 1   
    16     5    25 1   
    17     6     8 1   
    18     6    26 1   
    19     6    27 1   
    20     7     8 1   
    21     7    28 1   
    22     7    29 1   
    23     8    14 1   
    24     8    30 1   
    25     9    15 1   
    26     9    31 1   
    27     9    32 1   
    28     9    33 1   
    29    10    15 1   
    30    10    34 1   
    31    10    35 1   
    32    10    36 1   
    33    11    16 1   
    34    11    37 1   
    35    11    38 1   
    36    11    39 1   
    37    12    16 1   
    38    12    40 1   
    39    12    41 1   
    40    12    42 1   
    41    13    17 1   
    42    13    43 1   
    43    13    44 1   
    44    14    17 1   
    45    14    45 1   
    46    17    46 1   
    47    17    47 1   
@<TRIPOS>SUBSTRUCTURE
     1 MOL         1 TEMP              0 ****  ****    0 ROOT
