@<TRIPOS>MOLECULE
*****
 22 22 0 0 0
SMALL
GASTEIGER

@<TRIPOS>ATOM
      1 C           1.0647    0.1188   -0.0555 C.3     1  UNL1        0.0122
      2 C           2.5662    0.0306   -0.0215 C.2     1  UNL1        0.2102
      3 O           3.1663   -1.0290    0.1228 O.2     1  UNL1        0.2761
      4 N           3.1864    1.2482   -0.1534 N.am    1  UNL1        0.3114
      5 C           4.6304    1.3585   -0.1501 C.3     1  UNL1        0.0368
      6 C           5.0996    2.7794   -0.3487 C.ar    1  UNL1        0.0303
      7 C           4.4435    3.8624    0.2577 C.ar    1  UNL1        0.0571
      8 C           4.8458    5.1738    0.0009 C.ar    1  UNL1        0.0615
      9 C           5.9441    5.4181   -0.8195 C.ar    1  UNL1        0.0617
     10 C           6.6542    4.3508   -1.3647 C.ar    1  UNL1        0.0615
     11 C           6.2343    3.0390   -1.1324 C.ar    1  UNL1        0.0571
     12 H           0.6354   -0.8806    0.0583 H       1  UNL1        0.0322
     13 H           0.7340    0.5385   -1.0095 H       1  UNL1        0.0322
     14 H           0.7130    0.7478    0.7674 H       1  UNL1        0.0322
     15 H           2.6380    2.0519   -0.4281 H       1  UNL1        0.1490
     16 H           5.0026    0.7177   -0.9588 H       1  UNL1        0.0512
     17 H           5.0127    0.9619    0.7969 H       1  UNL1        0.0512
     18 H           3.6029    3.6935    0.9270 H       1  UNL1        0.0621
     19 H           4.3003    6.0045    0.4410 H       1  UNL1        0.0618
     20 H           6.2522    6.4396   -1.0260 H       1  UNL1        0.0618
     21 H           7.5314    4.5402   -1.9783 H       1  UNL1        0.0618
     22 H           6.7964    2.2198   -1.5768 H       1  UNL1        0.0621
@<TRIPOS>BOND
     1     1     2    1
     2     2     3    2
     3     2     4   am
     4     4     5    1
     5     5     6    1
     6     6     7   ar
     7     7     8   ar
     8     8     9   ar
     9     9    10   ar
    10    10    11   ar
    11     6    11   ar
    12     1    12    1
    13     1    13    1
    14     1    14    1
    15     4    15    1
    16     5    16    1
    17     5    17    1
    18     7    18    1
    19     8    19    1
    20     9    20    1
    21    10    21    1
    22    11    22    1
