@<TRIPOS>MOLECULE
MOL
   28    28     1     0     0
SMALL
No Charge or Current Charge


@<TRIPOS>ATOM
      1 C1          -1.7930     1.3760     0.0430 C.ar       1 MOL       0.000000
      2 C2          -1.1450    -0.9630     0.2130 C.ar       1 MOL       0.000000
      3 C3          -0.4740     1.7460     0.2820 C.ar       1 MOL       0.000000
      4 C4           0.1690    -0.5810     0.4430 C.ar       1 MOL       0.000000
      5 C5          -2.1410     0.0140     0.0090 C.ar       1 MOL       0.000000
      6 C6           0.5210     0.7800     0.4830 C.ar       1 MOL       0.000000
      7 C7          -3.5290    -0.3870    -0.2230 C.2        1 MOL       0.000000
      8 C8           3.5440    -0.4640    -0.1690 C.2        1 MOL       0.000000
      9 C9           4.6500    -0.7070    -1.1780 C.3        1 MOL       0.000000
     10 C10          1.9610     1.1820     0.7650 C.3        1 MOL       0.000000
     11 N1          -4.3100     0.3360    -1.0230 N.3        1 MOL       0.000000
     12 N2           2.9050     0.7480    -0.2570 N.am       1 MOL       0.000000
     13 N3          -4.0150    -1.4780     0.3650 N.3        1 MOL       0.000000
     14 O1           3.2360    -1.2870     0.6870 O.2        1 MOL       0.000000
     15 H1          -2.5540     2.1450    -0.0610 H          1 MOL       0.000000
     16 H2          -1.3880    -2.0200     0.1480 H          1 MOL       0.000000
     17 H3          -0.2200     2.8020     0.3290 H          1 MOL       0.000000
     18 H4           0.9440    -1.3260     0.5940 H          1 MOL       0.000000
     19 H5           5.6130    -0.6780    -0.6570 H          1 MOL       0.000000
     20 H6           4.5350    -1.7100    -1.5960 H          1 MOL       0.000000
     21 H7           4.6710     0.0250    -1.9910 H          1 MOL       0.000000
     22 H8           2.0330     2.2690     0.8660 H          1 MOL       0.000000
     23 H9           2.2740     0.7290     1.7120 H          1 MOL       0.000000
     24 H10         -3.9060     1.0640    -1.5970 H          1 MOL       0.000000
     25 H11         -5.3000     0.1530    -1.1360 H          1 MOL       0.000000
     26 H12          3.1910     1.4110    -0.9630 H          1 MOL       0.000000
     27 H13         -3.4820    -1.9390     1.0910 H          1 MOL       0.000000
     28 H14         -4.9350    -1.8490     0.1600 H          1 MOL       0.000000
@<TRIPOS>BOND
     1     1     3 ar  
     2     1     5 ar  
     3     1    15 1   
     4     2     4 ar  
     5     2     5 ar  
     6     2    16 1   
     7     3     6 ar  
     8     3    17 1   
     9     4     6 ar  
    10     4    18 1   
    11     5     7 1   
    12     6    10 1   
    13     7    11 2   
    14     7    13 1   
    15     8     9 1   
    16     8    12 am  
    17     8    14 2   
    18     9    19 1   
    19     9    20 1   
    20     9    21 1   
    21    10    12 1   
    22    10    22 1   
    23    10    23 1   
    24    11    24 1   
    25    11    25 1   
    26    12    26 1   
    27    13    27 1   
    28    13    28 1   
@<TRIPOS>SUBSTRUCTURE
     1 MOL         1 TEMP              0 ****  ****    0 ROOT
