@<TRIPOS>MOLECULE
MOL
   25    25     1     0     0
SMALL
No Charge or Current Charge


@<TRIPOS>ATOM
 1  C1  -3.111000  0.746000  -1.681000  C.3  1  MOL  -0.237140 
 2  N1  -2.534000  0.931000  -0.342000  N.3  1  MOL  -0.308659 
 3  C2  -3.297000  1.861000  0.508000  C.3  1  MOL  -0.237140 
 4  S1  -2.130000  -0.519000  0.436000  S.o2  1  MOL  1.084913 
 5  O1  -1.679000  -0.151000  1.774000  O.2  1  MOL  -0.509246 
 6  O2  -3.143000  -1.559000  0.238000  O.2  1  MOL  -0.509246 
 7  N2  -0.846000  -1.033000  -0.551000  N.3  1  MOL  -0.677968 
 8  C3  0.499000  -0.626000  -0.339000  C.ar  1  MOL  0.334343 
 9  C4  1.514000  -1.591000  -0.339000  C.ar  1  MOL  -0.238134 
 10  C5  2.848000  -1.215000  -0.202000  C.ar  1  MOL  -0.088339 
 11  C6  3.165000  0.132000  -0.042000  C.ar  1  MOL  -0.003092 
 12  Cl1  4.846000  0.614000  0.145000  Cl  1  MOL  -0.118520 
 13  C7  2.164000  1.102000  -0.029000  C.ar  1  MOL  -0.088339 
 14  C8  0.833000  0.726000  -0.189000  C.ar  1  MOL  -0.238134 
 15  H1  -3.146000  1.727000  -2.164000  H  1  MOL  0.133004 
 16  H2  -4.124000  0.323000  -1.646000  H  1  MOL  0.133004 
 17  H3  -2.464000  0.092000  -2.268000  H  1  MOL  0.133004 
 18  H4  -3.307000  2.831000  0.003000  H  1  MOL  0.133004 
 19  H5  -2.798000  1.966000  1.471000  H  1  MOL  0.133004 
 20  H6  -4.335000  1.534000  0.667000  H  1  MOL  0.133004 
 21  H7  -0.967000  -2.030000  -0.710000  H  1  MOL  0.351857 
 22  H8  1.262000  -2.643000  -0.446000  H  1  MOL  0.193174 
 23  H9  3.632000  -1.964000  -0.208000  H  1  MOL  0.149237 
 24  H10  2.423000  2.149000  0.094000  H  1  MOL  0.149237 
 25  H11  0.052000  1.477000  -0.204000  H  1  MOL  0.193174 
@<TRIPOS>BOND
     1     1     2 1   
     2     1    15 1   
     3     1    16 1   
     4     1    17 1   
     5     2     3 1   
     6     2     4 1   
     7     3    18 1   
     8     3    19 1   
     9     3    20 1   
    10     4     5 2   
    11     4     6 2   
    12     4     7 1   
    13     7     8 1   
    14     7    21 1   
    15     8     9 ar  
    16     8    14 ar  
    17     9    10 ar  
    18     9    22 1   
    19    10    11 ar  
    20    10    23 1   
    21    11    12 1   
    22    11    13 ar  
    23    13    14 ar  
    24    13    24 1   
    25    14    25 1   
@<TRIPOS>SUBSTRUCTURE
     1 MOL         1 TEMP              0 ****  ****    0 ROOT
