@<TRIPOS>MOLECULE
MOL
   25    25     1     0     0
SMALL
No Charge or Current Charge


@<TRIPOS>ATOM
      1 C1          -3.1110     0.7460    -1.6810 C.3        1 MOL       0.000000
      2 N1          -2.5340     0.9310    -0.3420 N.3        1 MOL       0.000000
      3 C2          -3.2970     1.8610     0.5080 C.3        1 MOL       0.000000
      4 S1          -2.1300    -0.5190     0.4360 S.o2       1 MOL       0.000000
      5 O1          -1.6790    -0.1510     1.7740 O.2        1 MOL       0.000000
      6 O2          -3.1430    -1.5590     0.2380 O.2        1 MOL       0.000000
      7 N2          -0.8460    -1.0330    -0.5510 N.3        1 MOL       0.000000
      8 C3           0.4990    -0.6260    -0.3390 C.ar       1 MOL       0.000000
      9 C4           1.5140    -1.5910    -0.3390 C.ar       1 MOL       0.000000
     10 C5           2.8480    -1.2150    -0.2020 C.ar       1 MOL       0.000000
     11 C6           3.1650     0.1320    -0.0420 C.ar       1 MOL       0.000000
     12 Cl1          4.8460     0.6140     0.1450 Cl         1 MOL       0.000000
     13 C7           2.1640     1.1020    -0.0290 C.ar       1 MOL       0.000000
     14 C8           0.8330     0.7260    -0.1890 C.ar       1 MOL       0.000000
     15 H1          -3.1460     1.7270    -2.1640 H          1 MOL       0.000000
     16 H2          -4.1240     0.3230    -1.6460 H          1 MOL       0.000000
     17 H3          -2.4640     0.0920    -2.2680 H          1 MOL       0.000000
     18 H4          -3.3070     2.8310     0.0030 H          1 MOL       0.000000
     19 H5          -2.7980     1.9660     1.4710 H          1 MOL       0.000000
     20 H6          -4.3350     1.5340     0.6670 H          1 MOL       0.000000
     21 H7          -0.9670    -2.0300    -0.7100 H          1 MOL       0.000000
     22 H8           1.2620    -2.6430    -0.4460 H          1 MOL       0.000000
     23 H9           3.6320    -1.9640    -0.2080 H          1 MOL       0.000000
     24 H10          2.4230     2.1490     0.0940 H          1 MOL       0.000000
     25 H11          0.0520     1.4770    -0.2040 H          1 MOL       0.000000
@<TRIPOS>BOND
     1     1     2 1   
     2     1    15 1   
     3     1    16 1   
     4     1    17 1   
     5     2     3 1   
     6     2     4 1   
     7     3    18 1   
     8     3    19 1   
     9     3    20 1   
    10     4     5 2   
    11     4     6 2   
    12     4     7 1   
    13     7     8 1   
    14     7    21 1   
    15     8     9 ar  
    16     8    14 ar  
    17     9    10 ar  
    18     9    22 1   
    19    10    11 ar  
    20    10    23 1   
    21    11    12 1   
    22    11    13 ar  
    23    13    14 ar  
    24    13    24 1   
    25    14    25 1   
@<TRIPOS>SUBSTRUCTURE
     1 MOL         1 TEMP              0 ****  ****    0 ROOT
