@<TRIPOS>MOLECULE
MOL
   23    23     1     0     0
SMALL
No Charge or Current Charge


@<TRIPOS>ATOM
      1 C1           0.5430     1.1280    -0.2960 C.ar       1 MOL       0.000000
      2 C2           1.6740    -0.9600     0.0360 C.ar       1 MOL       0.000000
      3 C3           1.7870     1.7430    -0.2180 C.ar       1 MOL       0.000000
      4 C4           0.4850    -0.2690    -0.1650 C.ar       1 MOL       0.000000
      5 C5           2.8860    -0.2400     0.0950 C.ar       1 MOL       0.000000
      6 C6          -3.1210    -0.1050    -0.0380 C.2        1 MOL       0.000000
      7 C7          -4.1190     0.5310     0.9180 C.3        1 MOL       0.000000
      8 C8          -0.8290    -1.0170    -0.2670 C.3        1 MOL       0.000000
      9 N1           2.9420     1.0950    -0.0210 N.ar       1 MOL       0.000000
     10 N2           4.0980    -0.8920     0.2380 N.3        1 MOL       0.000000
     11 N3          -1.8970    -0.4020     0.5040 N.am       1 MOL       0.000000
     12 O1          -3.4010    -0.3360    -1.2080 O.2        1 MOL       0.000000
     13 H1          -0.3580     1.7120    -0.4540 H          1 MOL       0.000000
     14 H2           1.6750    -2.0420     0.1390 H          1 MOL       0.000000
     15 H3           1.8690     2.8250    -0.3130 H          1 MOL       0.000000
     16 H4          -4.4740     1.4690     0.4820 H          1 MOL       0.000000
     17 H5          -4.9850    -0.1310     1.0160 H          1 MOL       0.000000
     18 H6          -3.7130     0.7320     1.9150 H          1 MOL       0.000000
     19 H7          -1.1870    -1.0310    -1.3020 H          1 MOL       0.000000
     20 H8          -0.6850    -2.0620     0.0410 H          1 MOL       0.000000
     21 H9           4.0900    -1.7850     0.7110 H          1 MOL       0.000000
     22 H10          4.8590    -0.2820     0.5100 H          1 MOL       0.000000
     23 H11         -1.7230    -0.1870     1.4750 H          1 MOL       0.000000
@<TRIPOS>BOND
     1     1     3 ar  
     2     1     4 ar  
     3     1    13 1   
     4     2     4 ar  
     5     2     5 ar  
     6     2    14 1   
     7     3     9 ar  
     8     3    15 1   
     9     4     8 1   
    10     5     9 ar  
    11     5    10 1   
    12     6     7 1   
    13     6    11 am  
    14     6    12 2   
    15     7    16 1   
    16     7    17 1   
    17     7    18 1   
    18     8    11 1   
    19     8    19 1   
    20     8    20 1   
    21    10    21 1   
    22    10    22 1   
    23    11    23 1   
@<TRIPOS>SUBSTRUCTURE
     1 MOL         1 TEMP              0 ****  ****    0 ROOT
