@<TRIPOS>MOLECULE
MOL
   23    23     1     0     0
SMALL
No Charge or Current Charge


@<TRIPOS>ATOM
 1  C1  0.543000  1.128000  -0.296000  C.ar  1  MOL  -0.434054 
 2  C2  1.674000  -0.960000  0.036000  C.ar  1  MOL  -0.513952 
 3  C3  1.787000  1.743000  -0.218000  C.ar  1  MOL  0.229751 
 4  C4  0.485000  -0.269000  -0.165000  C.ar  1  MOL  0.366443 
 5  C5  2.886000  -0.240000  0.095000  C.ar  1  MOL  0.713800 
 6  C6  -3.121000  -0.105000  -0.038000  C.2  1  MOL  0.510929 
 7  C7  -4.119000  0.531000  0.918000  C.3  1  MOL  -0.313908 
 8  C8  -0.829000  -1.017000  -0.267000  C.3  1  MOL  -0.204791 
 9  N1  2.942000  1.095000  -0.021000  N.ar  1  MOL  -0.593193 
 10  N2  4.098000  -0.892000  0.238000  N.3  1  MOL  -0.914494 
 11  N3  -1.897000  -0.402000  0.504000  N.am  1  MOL  -0.353167 
 12  O1  -3.401000  -0.336000  -1.208000  O.2  1  MOL  -0.514977 
 13  H1  -0.358000  1.712000  -0.454000  H  1  MOL  0.173648 
 14  H2  1.675000  -2.042000  0.139000  H  1  MOL  0.175073 
 15  H3  1.869000  2.825000  -0.313000  H  1  MOL  0.094383 
 16  H4  -4.474000  1.469000  0.482000  H  1  MOL  0.111818 
 17  H5  -4.985000  -0.131000  1.016000  H  1  MOL  0.116842 
 18  H6  -3.713000  0.732000  1.915000  H  1  MOL  0.089295 
 19  H7  -1.187000  -1.031000  -1.302000  H  1  MOL  0.125582 
 20  H8  -0.685000  -2.062000  0.041000  H  1  MOL  0.125582 
 21  H9  4.090000  -1.785000  0.711000  H  1  MOL  0.376220 
 22  H10  4.859000  -0.282000  0.510000  H  1  MOL  0.376220 
 23  H11  -1.723000  -0.187000  1.475000  H  1  MOL  0.256949 
@<TRIPOS>BOND
     1     1     3 ar  
     2     1     4 ar  
     3     1    13 1   
     4     2     4 ar  
     5     2     5 ar  
     6     2    14 1   
     7     3     9 ar  
     8     3    15 1   
     9     4     8 1   
    10     5     9 ar  
    11     5    10 1   
    12     6     7 1   
    13     6    11 am  
    14     6    12 2   
    15     7    16 1   
    16     7    17 1   
    17     7    18 1   
    18     8    11 1   
    19     8    19 1   
    20     8    20 1   
    21    10    21 1   
    22    10    22 1   
    23    11    23 1   
@<TRIPOS>SUBSTRUCTURE
     1 MOL         1 TEMP              0 ****  ****    0 ROOT
