@<TRIPOS>MOLECULE
MOL
   42    42     1     0     0
SMALL
No Charge or Current Charge


@<TRIPOS>ATOM
      1 C1           0.7110     1.5600    -0.6280 C.2        1 MOL       0.000000
      2 C2           3.3040    -1.8770     0.2980 C.2        1 MOL       0.000000
      3 C3          -4.5100    -0.9930     0.8120 C.3        1 MOL       0.000000
      4 C4          -4.4250    -0.3240    -0.5670 C.3        1 MOL       0.000000
      5 C5          -3.3120    -0.6040     1.6900 C.3        1 MOL       0.000000
      6 C6          -3.0870    -0.6250    -1.2590 C.3        1 MOL       0.000000
      7 C7          -1.9760    -0.9060     0.9920 C.3        1 MOL       0.000000
      8 C8          -1.8750    -0.2320    -0.3910 C.3        1 MOL       0.000000
      9 C9           0.9240     3.7770     0.3470 C.3        1 MOL       0.000000
     10 C10          1.2940     1.7920     1.7990 C.3        1 MOL       0.000000
     11 C11          2.3690    -1.7970    -0.9240 C.3        1 MOL       0.000000
     12 C12         -0.5610    -0.5600    -1.1270 C.3        1 MOL       0.000000
     13 C13          0.7170     0.0240    -0.4940 C.3        1 MOL       0.000000
     14 N1           0.9760     2.3240     0.4740 N.am       1 MOL       0.000000
     15 N2           1.9640    -0.4110    -1.1630 N.3        1 MOL       0.000000
     16 O1           3.5590    -2.9060     0.8750 O.2        1 MOL       0.000000
     17 O2           0.4970     2.0420    -1.7400 O.2        1 MOL       0.000000
     18 O3           3.8240    -0.6820     0.6380 O.3        1 MOL       0.000000
     19 H1          -5.4500    -0.7240     1.3100 H          1 MOL       0.000000
     20 H2          -4.5250    -2.0850     0.6850 H          1 MOL       0.000000
     21 H3          -5.2580    -0.6510    -1.2020 H          1 MOL       0.000000
     22 H4          -4.5330     0.7650    -0.4490 H          1 MOL       0.000000
     23 H5          -3.3650     0.4720     1.9180 H          1 MOL       0.000000
     24 H6          -3.3580    -1.1280     2.6530 H          1 MOL       0.000000
     25 H7          -3.0300    -1.7020    -1.4830 H          1 MOL       0.000000
     26 H8          -3.0340    -0.1030    -2.2230 H          1 MOL       0.000000
     27 H9          -1.1470    -0.5940     1.6410 H          1 MOL       0.000000
     28 H10         -1.8730    -1.9950     0.8630 H          1 MOL       0.000000
     29 H11         -1.9210     0.8590    -0.2430 H          1 MOL       0.000000
     30 H12          0.1850     4.1960     1.0420 H          1 MOL       0.000000
     31 H13          0.6420     4.0220    -0.6760 H          1 MOL       0.000000
     32 H14          1.9030     4.2200     0.5700 H          1 MOL       0.000000
     33 H15          1.7480     2.5940     2.3870 H          1 MOL       0.000000
     34 H16          2.0210     0.9780     1.7490 H          1 MOL       0.000000
     35 H17          0.4010     1.4460     2.3370 H          1 MOL       0.000000
     36 H18          1.5420    -2.4990    -0.7650 H          1 MOL       0.000000
     37 H19          2.9360    -2.1610    -1.7890 H          1 MOL       0.000000
     38 H20         -0.4560    -1.6510    -1.1950 H          1 MOL       0.000000
     39 H21         -0.6170    -0.1720    -2.1510 H          1 MOL       0.000000
     40 H22          0.7950    -0.2950     0.5470 H          1 MOL       0.000000
     41 H23          3.4250    -0.0520    -0.0180 H          1 MOL       0.000000
     42 H24          1.9030    -0.1830    -2.1530 H          1 MOL       0.000000
@<TRIPOS>BOND
     1     1    13 1   
     2     1    14 am  
     3     1    17 2   
     4     2    11 1   
     5     2    16 2   
     6     2    18 1   
     7     3     4 1   
     8     3     5 1   
     9     3    19 1   
    10     3    20 1   
    11     4     6 1   
    12     4    21 1   
    13     4    22 1   
    14     5     7 1   
    15     5    23 1   
    16     5    24 1   
    17     6     8 1   
    18     6    25 1   
    19     6    26 1   
    20     7     8 1   
    21     7    27 1   
    22     7    28 1   
    23     8    12 1   
    24     8    29 1   
    25     9    14 1   
    26     9    30 1   
    27     9    31 1   
    28     9    32 1   
    29    10    14 1   
    30    10    33 1   
    31    10    34 1   
    32    10    35 1   
    33    11    15 1   
    34    11    36 1   
    35    11    37 1   
    36    12    13 1   
    37    12    38 1   
    38    12    39 1   
    39    13    15 1   
    40    13    40 1   
    41    15    42 1   
    42    18    41 1   
@<TRIPOS>SUBSTRUCTURE
     1 MOL         1 TEMP              0 ****  ****    0 ROOT
