@<TRIPOS>MOLECULE
MOL
   33    33     1     0     0
SMALL
No Charge or Current Charge


@<TRIPOS>ATOM
      1 C1           4.4360    -0.3840     0.1920 C.ar       1 MOL       0.000000
      2 C2           3.7520    -0.0140    -0.9670 C.ar       1 MOL       0.000000
      3 C3           3.7900    -1.1600     1.1560 C.ar       1 MOL       0.000000
      4 C4           2.4310    -0.4180    -1.1610 C.ar       1 MOL       0.000000
      5 C5           2.4700    -1.5620     0.9580 C.ar       1 MOL       0.000000
      6 C6           1.7720    -1.1950    -0.2000 C.ar       1 MOL       0.000000
      7 C7          -2.1610    -1.1020     0.2540 C.2        1 MOL       0.000000
      8 C8          -3.8090    -2.8370    -0.3610 C.3        1 MOL       0.000000
      9 C9          -2.2670     2.6260     0.4790 C.3        1 MOL       0.000000
     10 C10          0.3340    -1.6260    -0.3890 C.3        1 MOL       0.000000
     11 C11         -0.7010    -0.5990     0.1370 C.3        1 MOL       0.000000
     12 N1          -2.4750    -2.2590    -0.3910 N.am       1 MOL       0.000000
     13 N2          -0.6560     0.6280    -0.6560 N.3        1 MOL       0.000000
     14 O1          -2.9900    -0.4420     0.8760 O.2        1 MOL       0.000000
     15 O2          -0.1820     3.0430    -1.0930 O.2        1 MOL       0.000000
     16 O3           0.1980     2.0460     1.2410 O.2        1 MOL       0.000000
     17 S1          -0.5850     2.1690     0.0110 S.o2       1 MOL       0.000000
     18 H1           5.4650    -0.0700     0.3430 H          1 MOL       0.000000
     19 H2           4.2450     0.5930    -1.7210 H          1 MOL       0.000000
     20 H3           4.3150    -1.4560     2.0600 H          1 MOL       0.000000
     21 H4           1.9040    -0.1190    -2.0630 H          1 MOL       0.000000
     22 H5           1.9740    -2.1700     1.7130 H          1 MOL       0.000000
     23 H6          -3.8130    -3.8000     0.1630 H          1 MOL       0.000000
     24 H7          -4.1920    -2.9860    -1.3770 H          1 MOL       0.000000
     25 H8          -4.4570    -2.1390     0.1700 H          1 MOL       0.000000
     26 H9          -2.1980     3.5780     1.0100 H          1 MOL       0.000000
     27 H10         -2.8630     2.7420    -0.4290 H          1 MOL       0.000000
     28 H11         -2.6770     1.8370     1.1110 H          1 MOL       0.000000
     29 H12          0.1420    -1.8150    -1.4550 H          1 MOL       0.000000
     30 H13          0.1740    -2.5720     0.1440 H          1 MOL       0.000000
     31 H14         -0.4090    -0.3110     1.1510 H          1 MOL       0.000000
     32 H15         -1.7440    -2.7700    -0.8620 H          1 MOL       0.000000
     33 H16         -1.0710     0.6120    -1.5830 H          1 MOL       0.000000
@<TRIPOS>BOND
     1     1     2 ar  
     2     1     3 ar  
     3     1    18 1   
     4     2     4 ar  
     5     2    19 1   
     6     3     5 ar  
     7     3    20 1   
     8     4     6 ar  
     9     4    21 1   
    10     5     6 ar  
    11     5    22 1   
    12     6    10 1   
    13     7    11 1   
    14     7    12 am  
    15     7    14 2   
    16     8    12 1   
    17     8    23 1   
    18     8    24 1   
    19     8    25 1   
    20     9    17 1   
    21     9    26 1   
    22     9    27 1   
    23     9    28 1   
    24    10    11 1   
    25    10    29 1   
    26    10    30 1   
    27    11    13 1   
    28    11    31 1   
    29    12    32 1   
    30    13    17 1   
    31    13    33 1   
    32    15    17 2   
    33    16    17 2   
@<TRIPOS>SUBSTRUCTURE
     1 MOL         1 TEMP              0 ****  ****    0 ROOT
