@<TRIPOS>MOLECULE
MOL
   33    33     1     0     0
SMALL
No Charge or Current Charge


@<TRIPOS>ATOM
 1  C1  4.436000  -0.384000  0.192000  C.ar  1  MOL  -0.116702 
 2  C2  3.752000  -0.014000  -0.967000  C.ar  1  MOL  -0.154622 
 3  C3  3.790000  -1.160000  1.156000  C.ar  1  MOL  -0.154622 
 4  C4  2.431000  -0.418000  -1.161000  C.ar  1  MOL  -0.113022 
 5  C5  2.470000  -1.562000  0.958000  C.ar  1  MOL  -0.113022 
 6  C6  1.772000  -1.195000  -0.200000  C.ar  1  MOL  -0.028478 
 7  C7  -2.161000  -1.102000  0.254000  C.2  1  MOL  0.596329 
 8  C8  -3.809000  -2.837000  -0.361000  C.3  1  MOL  -0.006198 
 9  C9  -2.267000  2.626000  0.479000  C.3  1  MOL  -0.412669 
 10  C10  0.334000  -1.626000  -0.389000  C.3  1  MOL  0.000675 
 11  C11  -0.701000  -0.599000  0.137000  C.3  1  MOL  -0.211847 
 12  N1  -2.475000  -2.259000  -0.391000  N.am  1  MOL  -0.470020 
 13  N2  -0.656000  0.628000  -0.656000  N.3  1  MOL  -0.497998 
 14  O1  -2.990000  -0.442000  0.876000  O.2  1  MOL  -0.524049 
 15  O2  -0.182000  3.043000  -1.093000  O.2  1  MOL  -0.518639 
 16  O3  0.198000  2.046000  1.241000  O.2  1  MOL  -0.504040 
 17  S1  -0.585000  2.169000  0.011000  S.o2  1  MOL  0.947437 
 18  H1  5.465000  -0.070000  0.343000  H  1  MOL  0.132281 
 19  H2  4.245000  0.593000  -1.721000  H  1  MOL  0.137109 
 20  H3  4.315000  -1.456000  2.060000  H  1  MOL  0.137109 
 21  H4  1.904000  -0.119000  -2.063000  H  1  MOL  0.126129 
 22  H5  1.974000  -2.170000  1.713000  H  1  MOL  0.126129 
 23  H6  -3.813000  -3.800000  0.163000  H  1  MOL  0.068972 
 24  H7  -4.192000  -2.986000  -1.377000  H  1  MOL  0.058547 
 25  H8  -4.457000  -2.139000  0.170000  H  1  MOL  0.062004 
 26  H9  -2.198000  3.578000  1.010000  H  1  MOL  0.187843 
 27  H10  -2.863000  2.742000  -0.429000  H  1  MOL  0.155917 
 28  H11  -2.677000  1.837000  1.111000  H  1  MOL  0.144151 
 29  H12  0.142000  -1.815000  -1.455000  H  1  MOL  0.062669 
 30  H13  0.174000  -2.572000  0.144000  H  1  MOL  0.062669 
 31  H14  -0.409000  -0.311000  1.151000  H  1  MOL  0.186807 
 32  H15  -1.744000  -2.770000  -0.862000  H  1  MOL  0.286695 
 33  H16  -1.071000  0.612000  -1.583000  H  1  MOL  0.346457 
@<TRIPOS>BOND
     1     1     2 ar  
     2     1     3 ar  
     3     1    18 1   
     4     2     4 ar  
     5     2    19 1   
     6     3     5 ar  
     7     3    20 1   
     8     4     6 ar  
     9     4    21 1   
    10     5     6 ar  
    11     5    22 1   
    12     6    10 1   
    13     7    11 1   
    14     7    12 am  
    15     7    14 2   
    16     8    12 1   
    17     8    23 1   
    18     8    24 1   
    19     8    25 1   
    20     9    17 1   
    21     9    26 1   
    22     9    27 1   
    23     9    28 1   
    24    10    11 1   
    25    10    29 1   
    26    10    30 1   
    27    11    13 1   
    28    11    31 1   
    29    12    32 1   
    30    13    17 1   
    31    13    33 1   
    32    15    17 2   
    33    16    17 2   
@<TRIPOS>SUBSTRUCTURE
     1 MOL         1 TEMP              0 ****  ****    0 ROOT
