@<TRIPOS>MOLECULE
MOL
   22    22     1     0     0
SMALL
No Charge or Current Charge


@<TRIPOS>ATOM
      1 C1           3.2250    -0.7360     0.4130 C.ar       1 MOL       0.000000
      2 C2           3.0990     0.6530     0.4260 C.ar       1 MOL       0.000000
      3 C3           2.1440    -1.5260     0.0120 C.ar       1 MOL       0.000000
      4 C4           1.8950     1.2470     0.0410 C.ar       1 MOL       0.000000
      5 C5           0.9440    -0.9310    -0.3730 C.ar       1 MOL       0.000000
      6 C6           0.8070     0.4650    -0.3610 C.ar       1 MOL       0.000000
      7 C7          -2.5160    -0.1240     0.0050 C.2        1 MOL       0.000000
      8 C8          -3.5200    -0.2930     1.1370 C.3        1 MOL       0.000000
      9 C9          -0.5070     1.1050    -0.7670 C.3        1 MOL       0.000000
     10 N1          -1.5930     0.8710     0.1830 N.am       1 MOL       0.000000
     11 O1          -2.5500    -0.8280    -0.9980 O.2        1 MOL       0.000000
     12 H1           4.1610    -1.2020     0.7110 H          1 MOL       0.000000
     13 H2           3.9360     1.2750     0.7340 H          1 MOL       0.000000
     14 H3           2.2390    -2.6090    -0.0060 H          1 MOL       0.000000
     15 H4           1.8020     2.3320     0.0490 H          1 MOL       0.000000
     16 H5           0.1030    -1.5420    -0.6920 H          1 MOL       0.000000
     17 H6          -4.5290    -0.2580     0.7180 H          1 MOL       0.000000
     18 H7          -3.3860    -1.2850     1.5830 H          1 MOL       0.000000
     19 H8          -3.4330     0.4630     1.9230 H          1 MOL       0.000000
     20 H9          -0.3790     2.1870    -0.8890 H          1 MOL       0.000000
     21 H10         -0.8560     0.6960    -1.7190 H          1 MOL       0.000000
     22 H11         -1.5300     1.3150     1.0890 H          1 MOL       0.000000
@<TRIPOS>BOND
     1     1     2 ar  
     2     1     3 ar  
     3     1    12 1   
     4     2     4 ar  
     5     2    13 1   
     6     3     5 ar  
     7     3    14 1   
     8     4     6 ar  
     9     4    15 1   
    10     5     6 ar  
    11     5    16 1   
    12     6     9 1   
    13     7     8 1   
    14     7    10 am  
    15     7    11 2   
    16     8    17 1   
    17     8    18 1   
    18     8    19 1   
    19     9    10 1   
    20     9    20 1   
    21     9    21 1   
    22    10    22 1   
@<TRIPOS>SUBSTRUCTURE
     1 MOL         1 TEMP              0 ****  ****    0 ROOT
