@<TRIPOS>MOLECULE
MOL
   39    39     1     0     0
SMALL
No Charge or Current Charge


@<TRIPOS>ATOM
      1 C1           0.3750     1.3060    -0.5410 C.2        1 MOL       0.000000
      2 C2           3.0790    -1.6860    -0.0190 C.2        1 MOL       0.000000
      3 C3          -3.9780    -0.7780     0.6140 C.3        1 MOL       0.000000
      4 C4          -2.8230    -1.7380     0.9360 C.3        1 MOL       0.000000
      5 C5          -3.4570     0.5730     0.0990 C.3        1 MOL       0.000000
      6 C6          -1.8840    -1.9060    -0.2710 C.3        1 MOL       0.000000
      7 C7          -2.5070     0.3940    -1.0980 C.3        1 MOL       0.000000
      8 C8          -1.3280    -0.5690    -0.8120 C.3        1 MOL       0.000000
      9 C9           1.3840     3.5140    -0.3490 C.3        1 MOL       0.000000
     10 C10          0.7470     2.3290     1.7220 C.3        1 MOL       0.000000
     11 C11          1.6430    -1.4420    -0.5040 C.3        1 MOL       0.000000
     12 C12         -0.2740     0.0710     0.1280 C.3        1 MOL       0.000000
     13 N1           0.8170     2.3190     0.2670 N.am       1 MOL       0.000000
     14 N2           0.8300    -0.8240     0.5580 N.3        1 MOL       0.000000
     15 O1           3.8530    -2.4150    -0.5900 O.2        1 MOL       0.000000
     16 O2           0.5080     1.3410    -1.7650 O.2        1 MOL       0.000000
     17 O3           3.4010    -0.9870     1.0850 O.3        1 MOL       0.000000
     18 H1          -4.6150    -1.2340    -0.1580 H          1 MOL       0.000000
     19 H2          -4.6120    -0.6330     1.4980 H          1 MOL       0.000000
     20 H3          -2.2640    -1.3540     1.8030 H          1 MOL       0.000000
     21 H4          -3.2150    -2.7170     1.2380 H          1 MOL       0.000000
     22 H5          -4.2970     1.2160    -0.1940 H          1 MOL       0.000000
     23 H6          -2.9460     1.1000     0.9170 H          1 MOL       0.000000
     24 H7          -1.0710    -2.6030    -0.0280 H          1 MOL       0.000000
     25 H8          -2.4460    -2.3850    -1.0850 H          1 MOL       0.000000
     26 H9          -3.0800    -0.0220    -1.9380 H          1 MOL       0.000000
     27 H10         -2.1270     1.3610    -1.4420 H          1 MOL       0.000000
     28 H11         -0.8220    -0.7580    -1.7640 H          1 MOL       0.000000
     29 H12          0.8230     4.4040    -0.0350 H          1 MOL       0.000000
     30 H13          1.3260     3.4070    -1.4300 H          1 MOL       0.000000
     31 H14          2.4320     3.6400    -0.0500 H          1 MOL       0.000000
     32 H15          1.6320     2.8430     2.1120 H          1 MOL       0.000000
     33 H16          0.7540     1.3160     2.1240 H          1 MOL       0.000000
     34 H17         -0.1420     2.8610     2.0890 H          1 MOL       0.000000
     35 H18          1.2460    -2.3910    -0.8830 H          1 MOL       0.000000
     36 H19          1.6970    -0.7540    -1.3540 H          1 MOL       0.000000
     37 H20         -0.7710     0.3790     1.0520 H          1 MOL       0.000000
     38 H21          0.4460    -1.5520     1.1570 H          1 MOL       0.000000
     39 H22          2.5690    -0.5150     1.3310 H          1 MOL       0.000000
@<TRIPOS>BOND
     1     1    12 1   
     2     1    13 am  
     3     1    16 2   
     4     2    11 1   
     5     2    15 2   
     6     2    17 1   
     7     3     4 1   
     8     3     5 1   
     9     3    18 1   
    10     3    19 1   
    11     4     6 1   
    12     4    20 1   
    13     4    21 1   
    14     5     7 1   
    15     5    22 1   
    16     5    23 1   
    17     6     8 1   
    18     6    24 1   
    19     6    25 1   
    20     7     8 1   
    21     7    26 1   
    22     7    27 1   
    23     8    12 1   
    24     8    28 1   
    25     9    13 1   
    26     9    29 1   
    27     9    30 1   
    28     9    31 1   
    29    10    13 1   
    30    10    32 1   
    31    10    33 1   
    32    10    34 1   
    33    11    14 1   
    34    11    35 1   
    35    11    36 1   
    36    12    14 1   
    37    12    37 1   
    38    14    38 1   
    39    17    39 1   
@<TRIPOS>SUBSTRUCTURE
     1 MOL         1 TEMP              0 ****  ****    0 ROOT
