@<TRIPOS>MOLECULE
MOL
   25    25     1     0     0
SMALL
No Charge or Current Charge


@<TRIPOS>ATOM
      1 C1          -2.2750     0.8210     0.6510 C.ar       1 MOL       0.000000
      2 C2          -2.6630    -0.5010     0.6220 C.ar       1 MOL       0.000000
      3 C3          -0.7380    -1.0770    -0.6020 C.ar       1 MOL       0.000000
      4 C4          -0.2790     0.2350    -0.6140 C.ar       1 MOL       0.000000
      5 C5          -1.0700     1.1940     0.0390 C.ar       1 MOL       0.000000
      6 C6           2.5870    -0.6940     0.1810 C.2        1 MOL       0.000000
      7 C7           3.8250    -0.6600     1.0490 C.3        1 MOL       0.000000
      8 C8          -2.3260    -2.8500    -0.0360 C.3        1 MOL       0.000000
      9 C9           1.0580     0.5360    -1.2760 C.3        1 MOL       0.000000
     10 N1          -1.8940    -1.4310     0.0030 N.pl3      1 MOL       0.000000
     11 N2           2.1550     0.5060    -0.3230 N.am       1 MOL       0.000000
     12 O1           1.9830    -1.7320    -0.0860 O.2        1 MOL       0.000000
     13 Cl1         -0.5800     2.8480     0.1140 Cl         1 MOL       0.000000
     14 H1          -2.8970     1.5550     1.1500 H          1 MOL       0.000000
     15 H2          -3.5770    -0.8510     1.0860 H          1 MOL       0.000000
     16 H3          -0.1530    -1.8710    -1.0460 H          1 MOL       0.000000
     17 H4           3.6460    -1.2580     1.9470 H          1 MOL       0.000000
     18 H5           4.6500    -1.1300     0.5030 H          1 MOL       0.000000
     19 H6           4.1270     0.3500     1.3390 H          1 MOL       0.000000
     20 H7          -2.8470    -3.0450    -0.9770 H          1 MOL       0.000000
     21 H8          -1.4470    -3.4890     0.0460 H          1 MOL       0.000000
     22 H9          -2.9930    -3.0420     0.8040 H          1 MOL       0.000000
     23 H10          1.2350    -0.2070    -2.0600 H          1 MOL       0.000000
     24 H11          1.0300     1.5220    -1.7420 H          1 MOL       0.000000
     25 H12          2.6730     1.3550    -0.1420 H          1 MOL       0.000000
@<TRIPOS>BOND
     1     1     2 ar  
     2     1     5 ar  
     3     1    14 1   
     4     2    10 2   
     5     2    15 1   
     6     3     4 ar  
     7     3    10 1   
     8     3    16 1   
     9     4     5 ar  
    10     4     9 1   
    11     5    13 1   
    12     6     7 1   
    13     6    11 am  
    14     6    12 2   
    15     7    17 1   
    16     7    18 1   
    17     7    19 1   
    18     8    10 1   
    19     8    20 1   
    20     8    21 1   
    21     8    22 1   
    22     9    11 1   
    23     9    23 1   
    24     9    24 1   
    25    11    25 1   
@<TRIPOS>SUBSTRUCTURE
     1 MOL         1 TEMP              0 ****  ****    0 ROOT
