@<TRIPOS>MOLECULE
MOL
   25    25     1     0     0
SMALL
No Charge or Current Charge


@<TRIPOS>ATOM
 1  C1  -2.275000  0.821000  0.651000  C.ar  1  MOL  -0.060727 
 2  C2  -2.663000  -0.501000  0.622000  C.ar  1  MOL  -0.027509 
 3  C3  -0.738000  -1.077000  -0.602000  C.ar  1  MOL  0.029829 
 4  C4  -0.279000  0.235000  -0.614000  C.ar  1  MOL  0.015380 
 5  C5  -1.070000  1.194000  0.039000  C.ar  1  MOL  -0.070672 
 6  C6  2.587000  -0.694000  0.181000  C.2  1  MOL  0.510929 
 7  C7  3.825000  -0.660000  1.049000  C.3  1  MOL  -0.313908 
 8  C8  -2.326000  -2.850000  -0.036000  C.3  1  MOL  -0.205371 
 9  C9  1.058000  0.536000  -1.276000  C.3  1  MOL  0.277234 
 10  N1  -1.894000  -1.431000  0.003000  N.pl3  1  MOL  0.068870 
 11  N2  2.155000  0.506000  -0.323000  N.am  1  MOL  -0.353167 
 12  O1  1.983000  -1.732000  -0.086000  O.2  1  MOL  -0.514977 
 13  Cl1  -0.580000  2.848000  0.114000  Cl  1  MOL  0.056859 
 14  H1  -2.897000  1.555000  1.150000  H  1  MOL  0.172612 
 15  H2  -3.577000  -0.851000  1.086000  H  1  MOL  0.202561 
 16  H3  -0.153000  -1.871000  -1.046000  H  1  MOL  0.180370 
 17  H4  3.646000  -1.258000  1.947000  H  1  MOL  0.111818 
 18  H5  4.650000  -1.130000  0.503000  H  1  MOL  0.116842 
 19  H6  4.127000  0.350000  1.339000  H  1  MOL  0.089295 
 20  H7  -2.847000  -3.045000  -0.977000  H  1  MOL  0.144931 
 21  H8  -1.447000  -3.489000  0.046000  H  1  MOL  0.144931 
 22  H9  -2.993000  -3.042000  0.804000  H  1  MOL  0.144931 
 23  H10  1.235000  -0.207000  -2.060000  H  1  MOL  0.010995 
 24  H11  1.030000  1.522000  -1.742000  H  1  MOL  0.010995 
 25  H12  2.673000  1.355000  -0.142000  H  1  MOL  0.256949 
@<TRIPOS>BOND
     1     1     2 ar  
     2     1     5 ar  
     3     1    14 1   
     4     2    10 2   
     5     2    15 1   
     6     3     4 ar  
     7     3    10 1   
     8     3    16 1   
     9     4     5 ar  
    10     4     9 1   
    11     5    13 1   
    12     6     7 1   
    13     6    11 am  
    14     6    12 2   
    15     7    17 1   
    16     7    18 1   
    17     7    19 1   
    18     8    10 1   
    19     8    20 1   
    20     8    21 1   
    21     8    22 1   
    22     9    11 1   
    23     9    23 1   
    24     9    24 1   
    25    11    25 1   
@<TRIPOS>SUBSTRUCTURE
     1 MOL         1 TEMP              0 ****  ****    0 ROOT
