@<TRIPOS>MOLECULE
*****
 21 21 0 0 0
SMALL
GASTEIGER

@<TRIPOS>ATOM
      1 C           1.0319    1.0792   -1.0264 C.3     1  UNL1        0.0122
      2 C           2.5179    1.1862   -1.2380 C.2     1  UNL1        0.2102
      3 O           3.0276    1.1795   -2.3536 O.2     1  UNL1        0.2761
      4 N           3.2312    1.2303   -0.0635 N.am    1  UNL1        0.3099
      5 C           4.6701    1.3952   -0.0685 C.3     1  UNL1        0.0540
      6 C           5.1387    2.8366    0.0204 C.ar    1  UNL1        0.0597
      7 C           6.5059    3.0885    0.0900 C.ar    1  UNL1        0.0205
      8 C           6.9291    4.4007    0.2587 C.ar    1  UNL1        0.0442
      9 CL          8.6082    4.7403    0.4231 Cl      1  UNL1        0.0834
     10 C           6.0082    5.4347    0.3158 C.ar    1  UNL1        0.0252
     11 C           4.6720    5.1030    0.2068 C.ar    1  UNL1        0.0293
     12 N           4.2179    3.8346    0.0877 N.ar    1  UNL1        0.2582
     13 H           0.5253    1.0419   -1.9951 H       1  UNL1        0.0322
     14 H           0.6639    1.9439   -0.4682 H       1  UNL1        0.0322
     15 H           0.8053    0.1599   -0.4781 H       1  UNL1        0.0322
     16 H           2.7437    1.5108    0.7764 H       1  UNL1        0.1491
     17 H           5.0928    0.9246   -0.9626 H       1  UNL1        0.0527
     18 H           5.0384    0.8619    0.8149 H       1  UNL1        0.0527
     19 H           7.2243    2.2774    0.0332 H       1  UNL1        0.0651
     20 H           6.3167    6.4655    0.4435 H       1  UNL1        0.0647
     21 H           3.9035    5.8711    0.2202 H       1  UNL1        0.0830
@<TRIPOS>BOND
     1     1     2    1
     2     2     3    2
     3     2     4   am
     4     4     5    1
     5     5     6    1
     6     6     7   ar
     7     7     8   ar
     8     8     9    1
     9     8    10   ar
    10    10    11   ar
    11    11    12   ar
    12     6    12   ar
    13     1    13    1
    14     1    14    1
    15     1    15    1
    16     4    16    1
    17     5    17    1
    18     5    18    1
    19     7    19    1
    20    10    20    1
    21    11    21    1
