@<TRIPOS>MOLECULE
MOL
   25    25     1     0     0
SMALL
No Charge or Current Charge


@<TRIPOS>ATOM
 1  C1  2.368000  0.888000  -0.717000  C.ar  1  MOL  -0.066588 
 2  C2  0.929000  -0.484000  0.651000  C.ar  1  MOL  -0.096057 
 3  C3  1.375000  1.841000  -0.726000  C.ar  1  MOL  -0.025494 
 4  C4  2.143000  -0.301000  -0.010000  C.ar  1  MOL  0.024101 
 5  C5  -0.046000  0.505000  0.624000  C.ar  1  MOL  0.112628 
 6  C6  -2.584000  -1.034000  -0.252000  C.2  1  MOL  0.510929 
 7  C7  -3.908000  -1.310000  -0.929000  C.3  1  MOL  -0.313908 
 8  C8  -0.807000  2.748000  -0.105000  C.3  1  MOL  -0.163636 
 9  C9  -1.360000  0.318000  1.364000  C.3  1  MOL  0.416046 
 10  N1  0.198000  1.659000  -0.067000  N.pl3  1  MOL  -0.011476 
 11  N2  -2.498000  0.153000  0.468000  N.am  1  MOL  -0.353167 
 12  O1  -1.618000  -1.779000  -0.309000  O.2  1  MOL  -0.514977 
 13  Cl1  3.347000  -1.527000  0.029000  Cl  1  MOL  0.057719 
 14  H1  3.293000  1.064000  -1.252000  H  1  MOL  0.163574 
 15  H2  0.714000  -1.412000  1.165000  H  1  MOL  0.133835 
 16  H3  1.488000  2.779000  -1.254000  H  1  MOL  0.215029 
 17  H4  -3.718000  -1.780000  -1.896000  H  1  MOL  0.111818 
 18  H5  -4.476000  -2.024000  -0.322000  H  1  MOL  0.116842 
 19  H6  -4.514000  -0.411000  -1.070000  H  1  MOL  0.089295 
 20  H7  -1.762000  2.340000  -0.435000  H  1  MOL  0.127872 
 21  H8  -0.906000  3.191000  0.889000  H  1  MOL  0.127872 
 22  H9  -0.470000  3.511000  -0.804000  H  1  MOL  0.127872 
 23  H10  -1.241000  -0.557000  2.010000  H  1  MOL  -0.023539 
 24  H11  -1.553000  1.182000  2.008000  H  1  MOL  -0.023539 
 25  H12  -3.360000  0.617000  0.729000  H  1  MOL  0.256949 
@<TRIPOS>BOND
     1     1     3 ar  
     2     1     4 ar  
     3     1    14 1   
     4     2     4 ar  
     5     2     5 ar  
     6     2    15 1   
     7     3    10 2   
     8     3    16 1   
     9     4    13 1   
    10     5     9 1   
    11     5    10 1   
    12     6     7 1   
    13     6    11 am  
    14     6    12 2   
    15     7    17 1   
    16     7    18 1   
    17     7    19 1   
    18     8    10 1   
    19     8    20 1   
    20     8    21 1   
    21     8    22 1   
    22     9    11 1   
    23     9    23 1   
    24     9    24 1   
    25    11    25 1   
@<TRIPOS>SUBSTRUCTURE
     1 MOL         1 TEMP              0 ****  ****    0 ROOT
