@<TRIPOS>MOLECULE
MOL
   25    25     1     0     0
SMALL
No Charge or Current Charge


@<TRIPOS>ATOM
      1 C1           2.3680     0.8880    -0.7170 C.ar       1 MOL       0.000000
      2 C2           0.9290    -0.4840     0.6510 C.ar       1 MOL       0.000000
      3 C3           1.3750     1.8410    -0.7260 C.ar       1 MOL       0.000000
      4 C4           2.1430    -0.3010    -0.0100 C.ar       1 MOL       0.000000
      5 C5          -0.0460     0.5050     0.6240 C.ar       1 MOL       0.000000
      6 C6          -2.5840    -1.0340    -0.2520 C.2        1 MOL       0.000000
      7 C7          -3.9080    -1.3100    -0.9290 C.3        1 MOL       0.000000
      8 C8          -0.8070     2.7480    -0.1050 C.3        1 MOL       0.000000
      9 C9          -1.3600     0.3180     1.3640 C.3        1 MOL       0.000000
     10 N1           0.1980     1.6590    -0.0670 N.pl3      1 MOL       0.000000
     11 N2          -2.4980     0.1530     0.4680 N.am       1 MOL       0.000000
     12 O1          -1.6180    -1.7790    -0.3090 O.2        1 MOL       0.000000
     13 Cl1          3.3470    -1.5270     0.0290 Cl         1 MOL       0.000000
     14 H1           3.2930     1.0640    -1.2520 H          1 MOL       0.000000
     15 H2           0.7140    -1.4120     1.1650 H          1 MOL       0.000000
     16 H3           1.4880     2.7790    -1.2540 H          1 MOL       0.000000
     17 H4          -3.7180    -1.7800    -1.8960 H          1 MOL       0.000000
     18 H5          -4.4760    -2.0240    -0.3220 H          1 MOL       0.000000
     19 H6          -4.5140    -0.4110    -1.0700 H          1 MOL       0.000000
     20 H7          -1.7620     2.3400    -0.4350 H          1 MOL       0.000000
     21 H8          -0.9060     3.1910     0.8890 H          1 MOL       0.000000
     22 H9          -0.4700     3.5110    -0.8040 H          1 MOL       0.000000
     23 H10         -1.2410    -0.5570     2.0100 H          1 MOL       0.000000
     24 H11         -1.5530     1.1820     2.0080 H          1 MOL       0.000000
     25 H12         -3.3600     0.6170     0.7290 H          1 MOL       0.000000
@<TRIPOS>BOND
     1     1     3 ar  
     2     1     4 ar  
     3     1    14 1   
     4     2     4 ar  
     5     2     5 ar  
     6     2    15 1   
     7     3    10 2   
     8     3    16 1   
     9     4    13 1   
    10     5     9 1   
    11     5    10 1   
    12     6     7 1   
    13     6    11 am  
    14     6    12 2   
    15     7    17 1   
    16     7    18 1   
    17     7    19 1   
    18     8    10 1   
    19     8    20 1   
    20     8    21 1   
    21     8    22 1   
    22     9    11 1   
    23     9    23 1   
    24     9    24 1   
    25    11    25 1   
@<TRIPOS>SUBSTRUCTURE
     1 MOL         1 TEMP              0 ****  ****    0 ROOT
