@<TRIPOS>MOLECULE
MOL
   26    25     1     0     0
SMALL
No Charge or Current Charge


@<TRIPOS>ATOM
      1 C1          -1.8230     0.5950     0.1230 C.2        1 MOL       0.000000
      2 C2          -0.1540     2.3860    -0.5270 C.3        1 MOL       0.000000
      3 C3          -3.7040    -0.9240     0.3690 C.3        1 MOL       0.000000
      4 C4          -1.6890    -1.7660    -0.7500 C.3        1 MOL       0.000000
      5 C5           2.4790    -1.5740     1.0550 C.3        1 MOL       0.000000
      6 C6          -0.3930     0.8830    -0.3920 C.3        1 MOL       0.000000
      7 N1           0.5330     0.2230     0.5680 N.3        1 MOL       0.000000
      8 N2          -2.3700    -0.6330    -0.1410 N.am       1 MOL       0.000000
      9 O1          -2.4260     1.4630     0.7490 O.2        1 MOL       0.000000
     10 O2           3.0570     0.8820     0.2650 O.2        1 MOL       0.000000
     11 O3           1.8850    -0.6720    -1.3820 O.2        1 MOL       0.000000
     12 S1           2.0820    -0.1790    -0.0140 S.o2       1 MOL       0.000000
     13 H1          -0.3370     2.8940     0.4240 H          1 MOL       0.000000
     14 H2           0.8730     2.5770    -0.8510 H          1 MOL       0.000000
     15 H3          -0.8410     2.8160    -1.2640 H          1 MOL       0.000000
     16 H4          -4.3320    -1.3240    -0.4360 H          1 MOL       0.000000
     17 H5          -4.1380    -0.0030     0.7550 H          1 MOL       0.000000
     18 H6          -3.6590    -1.6690     1.1760 H          1 MOL       0.000000
     19 H7          -1.5750    -2.5790    -0.0190 H          1 MOL       0.000000
     20 H8          -0.7010    -1.5040    -1.1190 H          1 MOL       0.000000
     21 H9          -2.2830    -2.1500    -1.5900 H          1 MOL       0.000000
     22 H10          3.4790    -1.9110     0.7720 H          1 MOL       0.000000
     23 H11          2.4790    -1.2400     2.0950 H          1 MOL       0.000000
     24 H12          1.7430    -2.3620     0.8970 H          1 MOL       0.000000
     25 H13         -0.2260     0.4030    -1.3570 H          1 MOL       0.000000
     26 H14          0.6320     0.7830     1.4160 H          1 MOL       0.000000
@<TRIPOS>BOND
     1     1     6 1   
     2     1     8 am  
     3     1     9 2   
     4     2     6 1   
     5     2    13 1   
     6     2    14 1   
     7     2    15 1   
     8     3     8 1   
     9     3    16 1   
    10     3    17 1   
    11     3    18 1   
    12     4     8 1   
    13     4    19 1   
    14     4    20 1   
    15     4    21 1   
    16     5    12 1   
    17     5    22 1   
    18     5    23 1   
    19     5    24 1   
    20     6     7 1   
    21     6    25 1   
    22     7    12 1   
    23     7    26 1   
    24    10    12 2   
    25    11    12 2   
@<TRIPOS>SUBSTRUCTURE
     1 MOL         1 TEMP              0 ****  ****    0 ROOT
