@<TRIPOS>MOLECULE
MOL
   26    25     1     0     0
SMALL
No Charge or Current Charge


@<TRIPOS>ATOM
 1  C1  -1.823000  0.595000  0.123000  C.2  1  MOL  0.636107 
 2  C2  -0.154000  2.386000  -0.527000  C.3  1  MOL  -0.064538 
 3  C3  -3.704000  -0.924000  0.369000  C.3  1  MOL  -0.071473 
 4  C4  -1.689000  -1.766000  -0.750000  C.3  1  MOL  -0.089282 
 5  C5  2.479000  -1.574000  1.055000  C.3  1  MOL  -0.412669 
 6  C6  -0.393000  0.883000  -0.392000  C.3  1  MOL  -0.242643 
 7  N1  0.533000  0.223000  0.568000  N.3  1  MOL  -0.497998 
 8  N2  -2.370000  -0.633000  -0.141000  N.am  1  MOL  -0.344286 
 9  O1  -2.426000  1.463000  0.749000  O.2  1  MOL  -0.560519 
 10  O2  3.057000  0.882000  0.265000  O.2  1  MOL  -0.518639 
 11  O3  1.885000  -0.672000  -1.382000  O.2  1  MOL  -0.504040 
 12  S1  2.082000  -0.179000  -0.014000  S.o2  1  MOL  0.947437 
 13  H1  -0.337000  2.894000  0.424000  H  1  MOL  0.060779 
 14  H2  0.873000  2.577000  -0.851000  H  1  MOL  0.060779 
 15  H3  -0.841000  2.816000  -1.264000  H  1  MOL  0.060779 
 16  H4  -4.332000  -1.324000  -0.436000  H  1  MOL  0.087465 
 17  H5  -4.138000  -0.003000  0.755000  H  1  MOL  0.084069 
 18  H6  -3.659000  -1.669000  1.176000  H  1  MOL  0.088028 
 19  H7  -1.575000  -2.579000  -0.019000  H  1  MOL  0.094118 
 20  H8  -0.701000  -1.504000  -1.119000  H  1  MOL  0.067267 
 21  H9  -2.283000  -2.150000  -1.590000  H  1  MOL  0.084095 
 22  H10  3.479000  -1.911000  0.772000  H  1  MOL  0.187843 
 23  H11  2.479000  -1.240000  2.095000  H  1  MOL  0.155917 
 24  H12  1.743000  -2.362000  0.897000  H  1  MOL  0.144151 
 25  H13  -0.226000  0.403000  -1.357000  H  1  MOL  0.200798 
 26  H14  0.632000  0.783000  1.416000  H  1  MOL  0.346457 
@<TRIPOS>BOND
     1     1     6 1   
     2     1     8 am  
     3     1     9 2   
     4     2     6 1   
     5     2    13 1   
     6     2    14 1   
     7     2    15 1   
     8     3     8 1   
     9     3    16 1   
    10     3    17 1   
    11     3    18 1   
    12     4     8 1   
    13     4    19 1   
    14     4    20 1   
    15     4    21 1   
    16     5    12 1   
    17     5    22 1   
    18     5    23 1   
    19     5    24 1   
    20     6     7 1   
    21     6    25 1   
    22     7    12 1   
    23     7    26 1   
    24    10    12 2   
    25    11    12 2   
@<TRIPOS>SUBSTRUCTURE
     1 MOL         1 TEMP              0 ****  ****    0 ROOT
