@<TRIPOS>MOLECULE
MOL
   31    31     1     0     0
SMALL
No Charge or Current Charge


@<TRIPOS>ATOM
      1 C1           3.5300    -0.5920    -0.0780 C.ar       1 MOL       0.000000
      2 C2           3.2370     0.4320     0.8260 C.ar       1 MOL       0.000000
      3 C3           2.6480    -0.8680    -1.1250 C.ar       1 MOL       0.000000
      4 C4           2.0620     1.1710     0.6870 C.ar       1 MOL       0.000000
      5 C5           1.4710    -0.1300    -1.2620 C.ar       1 MOL       0.000000
      6 C6           1.1650     0.8900    -0.3530 C.ar       1 MOL       0.000000
      7 C7          -1.8600    -0.1830    -0.0590 C.2        1 MOL       0.000000
      8 C8          -1.9410    -2.5980    -0.1190 C.3        1 MOL       0.000000
      9 C9          -0.3590    -1.5130     1.4380 C.3        1 MOL       0.000000
     10 C10         -0.1190     1.6830    -0.4870 C.3        1 MOL       0.000000
     11 C11         -1.2740     1.1800     0.4160 C.3        1 MOL       0.000000
     12 N1          -1.3940    -1.3430     0.4160 N.am       1 MOL       0.000000
     13 N2          -2.4600     2.1090     0.2090 N.4        1 MOL       0.000000
     14 O1          -2.7680    -0.0860    -0.9060 O.2        1 MOL       0.000000
     15 H1           4.4490    -1.1610     0.0230 H          1 MOL       0.000000
     16 H2           3.9290     0.6640     1.6300 H          1 MOL       0.000000
     17 H3           2.8820    -1.6480    -1.8440 H          1 MOL       0.000000
     18 H4           1.8520     1.9810     1.3830 H          1 MOL       0.000000
     19 H5           0.7960    -0.3390    -2.0900 H          1 MOL       0.000000
     20 H6          -1.1360    -3.1760    -0.5840 H          1 MOL       0.000000
     21 H7          -2.7090    -2.3720    -0.8560 H          1 MOL       0.000000
     22 H8          -2.3720    -3.1840     0.6990 H          1 MOL       0.000000
     23 H9          -0.7680    -2.1030     2.2660 H          1 MOL       0.000000
     24 H10         -0.0000    -0.5610     1.8190 H          1 MOL       0.000000
     25 H11          0.4960    -2.0450     1.0090 H          1 MOL       0.000000
     26 H12          0.0720     2.7330    -0.2250 H          1 MOL       0.000000
     27 H13         -0.4720     1.6600    -1.5250 H          1 MOL       0.000000
     28 H14         -1.0020     1.2140     1.4710 H          1 MOL       0.000000
     29 H15         -2.1860     3.0500    -0.0870 H          1 MOL       0.000000
     30 H16         -3.0630     2.1850     1.0350 H          1 MOL       0.000000
     31 H17         -2.9950     1.5970    -0.5520 H          1 MOL       0.000000
@<TRIPOS>BOND
     1     1     2 ar  
     2     1     3 ar  
     3     1    15 1   
     4     2     4 ar  
     5     2    16 1   
     6     3     5 ar  
     7     3    17 1   
     8     4     6 ar  
     9     4    18 1   
    10     5     6 ar  
    11     5    19 1   
    12     6    10 1   
    13     7    11 1   
    14     7    12 am  
    15     7    14 2   
    16     8    12 1   
    17     8    20 1   
    18     8    21 1   
    19     8    22 1   
    20     9    12 1   
    21     9    23 1   
    22     9    24 1   
    23     9    25 1   
    24    10    11 1   
    25    10    26 1   
    26    10    27 1   
    27    11    13 1   
    28    11    28 1   
    29    13    29 1   
    30    13    30 1   
    31    13    31 1   
@<TRIPOS>SUBSTRUCTURE
     1 MOL         1 TEMP              0 ****  ****    0 ROOT
