@<TRIPOS>MOLECULE
MOL
   31    31     1     0     0
SMALL
No Charge or Current Charge


@<TRIPOS>ATOM
 1  C1  3.530000  -0.592000  -0.078000  C.ar  1  MOL  -0.096597 
 2  C2  3.237000  0.432000  0.826000  C.ar  1  MOL  -0.146470 
 3  C3  2.648000  -0.868000  -1.125000  C.ar  1  MOL  -0.146470 
 4  C4  2.062000  1.171000  0.687000  C.ar  1  MOL  -0.146263 
 5  C5  1.471000  -0.130000  -1.262000  C.ar  1  MOL  -0.146263 
 6  C6  1.165000  0.890000  -0.353000  C.ar  1  MOL  -0.028411 
 7  C7  -1.860000  -0.183000  -0.059000  C.2  1  MOL  0.636107 
 8  C8  -1.941000  -2.598000  -0.119000  C.3  1  MOL  -0.071473 
 9  C9  -0.359000  -1.513000  1.438000  C.3  1  MOL  -0.089282 
 10  C10  -0.119000  1.683000  -0.487000  C.3  1  MOL  -0.031305 
 11  C11  -1.274000  1.180000  0.416000  C.3  1  MOL  0.451475 
 12  N1  -1.394000  -1.343000  0.416000  N.am  1  MOL  -0.344286 
 13  N2  -2.460000  2.109000  0.209000  N.4  1  MOL  -0.907352 
 14  O1  -2.768000  -0.086000  -0.906000  O.2  1  MOL  -0.560519 
 15  H1  4.449000  -1.161000  0.023000  H  1  MOL  0.157758 
 16  H2  3.929000  0.664000  1.630000  H  1  MOL  0.171316 
 17  H3  2.882000  -1.648000  -1.844000  H  1  MOL  0.171316 
 18  H4  1.852000  1.981000  1.383000  H  1  MOL  0.129287 
 19  H5  0.796000  -0.339000  -2.090000  H  1  MOL  0.129287 
 20  H6  -1.136000  -3.176000  -0.584000  H  1  MOL  0.087465 
 21  H7  -2.709000  -2.372000  -0.856000  H  1  MOL  0.084069 
 22  H8  -2.372000  -3.184000  0.699000  H  1  MOL  0.088028 
 23  H9  -0.768000  -2.103000  2.266000  H  1  MOL  0.094118 
 24  H10  -0.000000  -0.561000  1.819000  H  1  MOL  0.067267 
 25  H11  0.496000  -2.045000  1.009000  H  1  MOL  0.084095 
 26  H12  0.072000  2.733000  -0.225000  H  1  MOL  0.048420 
 27  H13  -0.472000  1.660000  -1.525000  H  1  MOL  0.048420 
 28  H14  -1.002000  1.214000  1.471000  H  1  MOL  0.003369 
 29  H15  -2.186000  3.050000  -0.087000  H  1  MOL  0.420964 
 30  H16  -3.063000  2.185000  1.035000  H  1  MOL  0.420964 
 31  H17  -2.995000  1.597000  -0.552000  H  1  MOL  0.420964 
@<TRIPOS>BOND
     1     1     2 ar  
     2     1     3 ar  
     3     1    15 1   
     4     2     4 ar  
     5     2    16 1   
     6     3     5 ar  
     7     3    17 1   
     8     4     6 ar  
     9     4    18 1   
    10     5     6 ar  
    11     5    19 1   
    12     6    10 1   
    13     7    11 1   
    14     7    12 am  
    15     7    14 2   
    16     8    12 1   
    17     8    20 1   
    18     8    21 1   
    19     8    22 1   
    20     9    12 1   
    21     9    23 1   
    22     9    24 1   
    23     9    25 1   
    24    10    11 1   
    25    10    26 1   
    26    10    27 1   
    27    11    13 1   
    28    11    28 1   
    29    13    29 1   
    30    13    30 1   
    31    13    31 1   
@<TRIPOS>SUBSTRUCTURE
     1 MOL         1 TEMP              0 ****  ****    0 ROOT
