@<TRIPOS>MOLECULE
MOL
   23    23     1     0     0
SMALL
No Charge or Current Charge


@<TRIPOS>ATOM
      1 C1          1.2000    0.0560    0.1530 C.2       1 MOL      0.000000
      2 C2         -1.8710   -0.8430   -0.0790 C.2       1 MOL      0.000000
      3 C3         -0.2320    2.1860   -0.1660 C.3       1 MOL      0.000000
      4 C4         -1.6200    1.6440    0.2730 C.3       1 MOL      0.000000
      5 C5          0.1070    0.7440   -0.6740 C.3       1 MOL      0.000000
      6 C6         -1.1450   -2.0830   -0.5730 C.3       1 MOL      0.000000
      7 C7          3.5890   -0.5850    0.1650 C.3       1 MOL      0.000000
      8 N1         -1.2630    0.3590   -0.3330 N.am      1 MOL      0.000000
      9 N2          2.4040   -0.0470   -0.4810 N.am      1 MOL      0.000000
     10 O1          0.9990   -0.3200    1.3010 O.2       1 MOL      0.000000
     11 O2         -2.9460   -0.8840    0.5040 O.2       1 MOL      0.000000
     12 H1         -0.2620    2.9350   -0.9600 H         1 MOL      0.000000
     13 H2          0.4050    2.5370    0.6480 H         1 MOL      0.000000
     14 H3         -1.7720    1.5730    1.3540 H         1 MOL      0.000000
     15 H4         -2.4930    2.1230   -0.1830 H         1 MOL      0.000000
     16 H5          0.3270    0.6780   -1.7500 H         1 MOL      0.000000
     17 H6         -0.4480   -2.4200    0.2020 H         1 MOL      0.000000
     18 H7         -0.5760   -1.9050   -1.4920 H         1 MOL      0.000000
     19 H8         -1.8820   -2.8700   -0.7460 H         1 MOL      0.000000
     20 H9          3.3040   -0.8770    1.1760 H         1 MOL      0.000000
     21 H10         4.3870    0.1640    0.2170 H         1 MOL      0.000000
     22 H11         3.9640   -1.4660   -0.3700 H         1 MOL      0.000000
     23 H12         2.4760    0.2720   -1.4360 H         1 MOL      0.000000
@<TRIPOS>BOND
     1    1    5 1   
     2    1    9 am  
     3    1   10 2   
     4    2    6 1   
     5    2    8 am  
     6    2   11 2   
     7    3    4 1   
     8    3    5 1   
     9    3   12 1   
    10    3   13 1   
    11    4    8 1   
    12    4   14 1   
    13    4   15 1   
    14    5    8 1   
    15    5   16 1   
    16    6   17 1   
    17    6   18 1   
    18    6   19 1   
    19    7    9 1   
    20    7   20 1   
    21    7   21 1   
    22    7   22 1   
    23    9   23 1   
@<TRIPOS>SUBSTRUCTURE
     1 MOL         1 TEMP              0 ****  ****    0 ROOT
