@<TRIPOS>MOLECULE
MOL
   23    23     1     0     0
SMALL
No Charge or Current Charge


@<TRIPOS>ATOM
 1  C1  1.200000  0.056000  0.153000  C.2  1  MOL  0.503436 
 2  C2  -1.871000  -0.843000  -0.079000  C.2  1  MOL  0.385640 
 3  C3  -0.232000  2.186000  -0.166000  C.3  1  MOL  -0.044560 
 4  C4  -1.620000  1.644000  0.273000  C.3  1  MOL  0.126793 
 5  C5  0.107000  0.744000  -0.674000  C.3  1  MOL  0.070087 
 6  C6  -1.145000  -2.083000  -0.573000  C.3  1  MOL  0.001210 
 7  C7  3.589000  -0.585000  0.165000  C.3  1  MOL  -0.007740 
 8  N1  -1.263000  0.359000  -0.333000  N.am  1  MOL  -0.346694 
 9  N2  2.404000  -0.047000  -0.481000  N.am  1  MOL  -0.472190 
 10  O1  0.999000  -0.320000  1.301000  O.2  1  MOL  -0.505502 
 11  O2  -2.946000  -0.884000  0.504000  O.2  1  MOL  -0.473840 
 12  H1  -0.262000  2.935000  -0.960000  H  1  MOL  0.036864 
 13  H2  0.405000  2.537000  0.648000  H  1  MOL  0.036864 
 14  H3  -1.772000  1.573000  1.354000  H  1  MOL  0.039367 
 15  H4  -2.493000  2.123000  -0.183000  H  1  MOL  0.039367 
 16  H5  0.327000  0.678000  -1.750000  H  1  MOL  0.043978 
 17  H6  -0.448000  -2.420000  0.202000  H  1  MOL  0.029000 
 18  H7  -0.576000  -1.905000  -1.492000  H  1  MOL  0.029000 
 19  H8  -1.882000  -2.870000  -0.746000  H  1  MOL  0.029000 
 20  H9  3.304000  -0.877000  1.176000  H  1  MOL  0.061720 
 21  H10  4.387000  0.164000  0.217000  H  1  MOL  0.061720 
 22  H11  3.964000  -1.466000  -0.370000  H  1  MOL  0.061720 
 23  H12  2.476000  0.272000  -1.436000  H  1  MOL  0.294760 
@<TRIPOS>BOND
     1    1    5 1   
     2    1    9 am  
     3    1   10 2   
     4    2    6 1   
     5    2    8 am  
     6    2   11 2   
     7    3    4 1   
     8    3    5 1   
     9    3   12 1   
    10    3   13 1   
    11    4    8 1   
    12    4   14 1   
    13    4   15 1   
    14    5    8 1   
    15    5   16 1   
    16    6   17 1   
    17    6   18 1   
    18    6   19 1   
    19    7    9 1   
    20    7   20 1   
    21    7   21 1   
    22    7   22 1   
    23    9   23 1   
@<TRIPOS>SUBSTRUCTURE
     1 MOL         1 TEMP              0 ****  ****    0 ROOT
