@<TRIPOS>MOLECULE
MOL
   23    23     1     0     0
SMALL
No Charge or Current Charge


@<TRIPOS>ATOM
      1 C1          -2.7040     1.3130     0.4570 C.ar       1 MOL       0.000000
      2 C2          -1.4410     1.7470     0.0420 C.ar       1 MOL       0.000000
      3 C3          -3.0280    -0.0400     0.4530 C.ar       1 MOL       0.000000
      4 C4          -0.8110    -0.5450    -0.3940 C.ar       1 MOL       0.000000
      5 C5          -0.4880     0.8180    -0.3850 C.ar       1 MOL       0.000000
      6 C6          -2.0730    -0.9710     0.0230 C.ar       1 MOL       0.000000
      7 C7           2.6670    -0.2480     0.0210 C.2        1 MOL       0.000000
      8 C8           3.6760    -0.4960     1.1330 C.3        1 MOL       0.000000
      9 C9           0.8950     1.2620    -0.8250 C.3        1 MOL       0.000000
     10 N1           1.9560     0.9160     0.1200 N.am       1 MOL       0.000000
     11 O1           2.5200    -1.0410    -0.9050 O.2        1 MOL       0.000000
     12 O2          -2.4360    -2.2900     0.0300 O.3        1 MOL       0.000000
     13 H1          -3.4440     2.0380     0.7860 H          1 MOL       0.000000
     14 H2          -1.2010     2.8080     0.0450 H          1 MOL       0.000000
     15 H3          -4.0040    -0.3930     0.7690 H          1 MOL       0.000000
     16 H4          -0.0670    -1.2660    -0.7290 H          1 MOL       0.000000
     17 H5           3.3800    -1.3940     1.6860 H          1 MOL       0.000000
     18 H6           4.6510    -0.6970     0.6820 H          1 MOL       0.000000
     19 H7           3.7730     0.3370     1.8370 H          1 MOL       0.000000
     20 H8           1.1670     0.7860    -1.7700 H          1 MOL       0.000000
     21 H9           0.9120     2.3470    -0.9740 H          1 MOL       0.000000
     22 H10          2.0140     1.4450     0.9780 H          1 MOL       0.000000
     23 H11         -1.6920    -2.8190    -0.2970 H          1 MOL       0.000000
@<TRIPOS>BOND
     1     1     2 ar  
     2     1     3 ar  
     3     1    13 1   
     4     2     5 ar  
     5     2    14 1   
     6     3     6 ar  
     7     3    15 1   
     8     4     5 ar  
     9     4     6 ar  
    10     4    16 1   
    11     5     9 1   
    12     6    12 1   
    13     7     8 1   
    14     7    10 am  
    15     7    11 2   
    16     8    17 1   
    17     8    18 1   
    18     8    19 1   
    19     9    10 1   
    20     9    20 1   
    21     9    21 1   
    22    10    22 1   
    23    12    23 1   
@<TRIPOS>SUBSTRUCTURE
     1 MOL         1 TEMP              0 ****  ****    0 ROOT
