@<TRIPOS>MOLECULE
MOL
   41    41     1     0     0
SMALL
No Charge or Current Charge


@<TRIPOS>ATOM
      1 C1          -1.0110     2.2990    -0.1850 C.2        1 MOL       0.000000
      2 C2          -2.1160    -0.8980    -0.4760 C.2        1 MOL       0.000000
      3 C3           4.5700    -0.4190     0.7070 C.3        1 MOL       0.000000
      4 C4           3.4950     0.5190     1.2730 C.3        1 MOL       0.000000
      5 C5           4.2850    -0.7640    -0.7620 C.3        1 MOL       0.000000
      6 C6           2.0800    -0.0550     1.0930 C.3        1 MOL       0.000000
      7 C7           2.8740    -1.3450    -0.9370 C.3        1 MOL       0.000000
      8 C8           1.7810    -0.4120    -0.3780 C.3        1 MOL       0.000000
      9 C9          -1.1270     3.5290    -1.0700 C.3        1 MOL       0.000000
     10 C10         -4.2350    -1.8610     0.2190 C.3        1 MOL       0.000000
     11 C11         -2.9470    -0.5420     1.8710 C.3        1 MOL       0.000000
     12 C12          0.3930    -1.0440    -0.5790 C.3        1 MOL       0.000000
     13 C13         -0.7980    -0.1690    -0.1450 C.3        1 MOL       0.000000
     14 N1          -0.8130     1.1160    -0.8410 N.am       1 MOL       0.000000
     15 N2          -3.0400    -1.0790     0.5150 N.am       1 MOL       0.000000
     16 O1          -1.0730     2.3790     1.0410 O.2        1 MOL       0.000000
     17 O2          -2.2930    -1.2850    -1.6330 O.2        1 MOL       0.000000
     18 H1           5.5650     0.0350     0.8060 H          1 MOL       0.000000
     19 H2           4.5910    -1.3470     1.2990 H          1 MOL       0.000000
     20 H3           3.6840     0.7200     2.3350 H          1 MOL       0.000000
     21 H4           3.5570     1.4890     0.7590 H          1 MOL       0.000000
     22 H5           4.3810     0.1460    -1.3720 H          1 MOL       0.000000
     23 H6           5.0330    -1.4730    -1.1410 H          1 MOL       0.000000
     24 H7           1.9760    -0.9640     1.7070 H          1 MOL       0.000000
     25 H8           1.3460     0.6670     1.4690 H          1 MOL       0.000000
     26 H9           2.6780    -1.5520    -1.9970 H          1 MOL       0.000000
     27 H10          2.8150    -2.3140    -0.4170 H          1 MOL       0.000000
     28 H11          1.8130     0.5240    -0.9580 H          1 MOL       0.000000
     29 H12         -2.1130     3.9810    -0.9210 H          1 MOL       0.000000
     30 H13         -0.3810     4.2630    -0.7510 H          1 MOL       0.000000
     31 H14         -0.9890     3.3190    -2.1350 H          1 MOL       0.000000
     32 H15         -4.3250    -2.6970     0.9260 H          1 MOL       0.000000
     33 H16         -4.1550    -2.2450    -0.7960 H          1 MOL       0.000000
     34 H17         -5.1360    -1.2390     0.3020 H          1 MOL       0.000000
     35 H18         -3.9610    -0.3290     2.2250 H          1 MOL       0.000000
     36 H19         -2.3890     0.3950     1.8960 H          1 MOL       0.000000
     37 H20         -2.4920    -1.2600     2.5680 H          1 MOL       0.000000
     38 H21          0.2520    -1.3140    -1.6330 H          1 MOL       0.000000
     39 H22          0.3360    -1.9860    -0.0150 H          1 MOL       0.000000
     40 H23         -0.7100     0.0720     0.9110 H          1 MOL       0.000000
     41 H24         -0.9340     1.0780    -1.8450 H          1 MOL       0.000000
@<TRIPOS>BOND
     1     1     9 1   
     2     1    14 am  
     3     1    16 2   
     4     2    13 1   
     5     2    15 am  
     6     2    17 2   
     7     3     4 1   
     8     3     5 1   
     9     3    18 1   
    10     3    19 1   
    11     4     6 1   
    12     4    20 1   
    13     4    21 1   
    14     5     7 1   
    15     5    22 1   
    16     5    23 1   
    17     6     8 1   
    18     6    24 1   
    19     6    25 1   
    20     7     8 1   
    21     7    26 1   
    22     7    27 1   
    23     8    12 1   
    24     8    28 1   
    25     9    29 1   
    26     9    30 1   
    27     9    31 1   
    28    10    15 1   
    29    10    32 1   
    30    10    33 1   
    31    10    34 1   
    32    11    15 1   
    33    11    35 1   
    34    11    36 1   
    35    11    37 1   
    36    12    13 1   
    37    12    38 1   
    38    12    39 1   
    39    13    14 1   
    40    13    40 1   
    41    14    41 1   
@<TRIPOS>SUBSTRUCTURE
     1 MOL         1 TEMP              0 ****  ****    0 ROOT
