@<TRIPOS>MOLECULE
MOL
   41    41     1     0     0
SMALL
No Charge or Current Charge


@<TRIPOS>ATOM
 1  C1  -1.011000  2.299000  -0.185000  C.2  1  MOL  0.510929 
 2  C2  -2.116000  -0.898000  -0.476000  C.2  1  MOL  0.636107 
 3  C3  4.570000  -0.419000  0.707000  C.3  1  MOL  0.002280 
 4  C4  3.495000  0.519000  1.273000  C.3  1  MOL  -0.008889 
 5  C5  4.285000  -0.764000  -0.762000  C.3  1  MOL  -0.008889 
 6  C6  2.080000  -0.055000  1.093000  C.3  1  MOL  0.029401 
 7  C7  2.874000  -1.345000  -0.937000  C.3  1  MOL  0.029401 
 8  C8  1.781000  -0.412000  -0.378000  C.3  1  MOL  0.153705 
 9  C9  -1.127000  3.529000  -1.070000  C.3  1  MOL  -0.313908 
 10  C10  -4.235000  -1.861000  0.219000  C.3  1  MOL  -0.071473 
 11  C11  -2.947000  -0.542000  1.871000  C.3  1  MOL  -0.089282 
 12  C12  0.393000  -1.044000  -0.579000  C.3  1  MOL  -0.064897 
 13  C13  -0.798000  -0.169000  -0.145000  C.3  1  MOL  -0.148650 
 14  N1  -0.813000  1.116000  -0.841000  N.am  1  MOL  -0.353167 
 15  N2  -3.040000  -1.079000  0.515000  N.am  1  MOL  -0.344286 
 16  O1  -1.073000  2.379000  1.041000  O.2  1  MOL  -0.514977 
 17  O2  -2.293000  -1.285000  -1.633000  O.2  1  MOL  -0.560519 
 18  H1  5.565000  0.035000  0.806000  H  1  MOL  0.000696 
 19  H2  4.591000  -1.347000  1.299000  H  1  MOL  0.000696 
 20  H3  3.684000  0.720000  2.335000  H  1  MOL  -0.008541 
 21  H4  3.557000  1.489000  0.759000  H  1  MOL  -0.008541 
 22  H5  4.381000  0.146000  -1.372000  H  1  MOL  -0.008541 
 23  H6  5.033000  -1.473000  -1.141000  H  1  MOL  -0.008541 
 24  H7  1.976000  -0.964000  1.707000  H  1  MOL  -0.011309 
 25  H8  1.346000  0.667000  1.469000  H  1  MOL  -0.011309 
 26  H9  2.678000  -1.552000  -1.997000  H  1  MOL  -0.011309 
 27  H10  2.815000  -2.314000  -0.417000  H  1  MOL  -0.011309 
 28  H11  1.813000  0.524000  -0.958000  H  1  MOL  -0.041214 
 29  H12  -2.113000  3.981000  -0.921000  H  1  MOL  0.111818 
 30  H13  -0.381000  4.263000  -0.751000  H  1  MOL  0.116842 
 31  H14  -0.989000  3.319000  -2.135000  H  1  MOL  0.089295 
 32  H15  -4.325000  -2.697000  0.926000  H  1  MOL  0.087465 
 33  H16  -4.155000  -2.245000  -0.796000  H  1  MOL  0.084069 
 34  H17  -5.136000  -1.239000  0.302000  H  1  MOL  0.088028 
 35  H18  -3.961000  -0.329000  2.225000  H  1  MOL  0.094118 
 36  H19  -2.389000  0.395000  1.896000  H  1  MOL  0.067267 
 37  H20  -2.492000  -1.260000  2.568000  H  1  MOL  0.084095 
 38  H21  0.252000  -1.314000  -1.633000  H  1  MOL  0.033184 
 39  H22  0.336000  -1.986000  -0.015000  H  1  MOL  0.033184 
 40  H23  -0.710000  0.072000  0.911000  H  1  MOL  0.090019 
 41  H24  -0.934000  1.078000  -1.845000  H  1  MOL  0.256949 
@<TRIPOS>BOND
     1     1     9 1   
     2     1    14 am  
     3     1    16 2   
     4     2    13 1   
     5     2    15 am  
     6     2    17 2   
     7     3     4 1   
     8     3     5 1   
     9     3    18 1   
    10     3    19 1   
    11     4     6 1   
    12     4    20 1   
    13     4    21 1   
    14     5     7 1   
    15     5    22 1   
    16     5    23 1   
    17     6     8 1   
    18     6    24 1   
    19     6    25 1   
    20     7     8 1   
    21     7    26 1   
    22     7    27 1   
    23     8    12 1   
    24     8    28 1   
    25     9    29 1   
    26     9    30 1   
    27     9    31 1   
    28    10    15 1   
    29    10    32 1   
    30    10    33 1   
    31    10    34 1   
    32    11    15 1   
    33    11    35 1   
    34    11    36 1   
    35    11    37 1   
    36    12    13 1   
    37    12    38 1   
    38    12    39 1   
    39    13    14 1   
    40    13    40 1   
    41    14    41 1   
@<TRIPOS>SUBSTRUCTURE
     1 MOL         1 TEMP              0 ****  ****    0 ROOT
