@<TRIPOS>MOLECULE
MOL
   21    21     1     0     0
SMALL
No Charge or Current Charge


@<TRIPOS>ATOM
      1 C1           2.5090     1.3590    -0.0010 C.ar       1 MOL       0.000000
      2 C2           1.3470    -0.7550     0.0010 C.ar       1 MOL       0.000000
      3 C3           1.2600     1.9700    -0.0000 C.ar       1 MOL       0.000000
      4 C4           2.5350    -0.0370    -0.0000 C.ar       1 MOL       0.000000
      5 C5           0.1430    -0.0380     0.0020 C.ar       1 MOL       0.000000
      6 C6          -3.5760    -0.3250    -0.0010 C.2        1 MOL       0.000000
      7 C7          -4.6550     0.7480    -0.0020 C.3        1 MOL       0.000000
      8 C8          -1.1770    -0.7860     0.0040 C.3        1 MOL       0.000000
      9 N1           0.1000     1.3000     0.0010 N.ar       1 MOL       0.000000
     10 N2          -2.2930     0.1300     0.0040 N.am       1 MOL       0.000000
     11 O1          -3.8420    -1.5230    -0.0030 O.2        1 MOL       0.000000
     12 Cl1          4.0680    -0.8820    -0.0010 Cl         1 MOL       0.000000
     13 H1           3.4240     1.9410    -0.0020 H          1 MOL       0.000000
     14 H2           1.3500    -1.8400     0.0020 H          1 MOL       0.000000
     15 H3           1.1860     3.0550    -0.0010 H          1 MOL       0.000000
     16 H4          -5.2870     0.6120    -0.8850 H          1 MOL       0.000000
     17 H5          -5.2920     0.6100     0.8770 H          1 MOL       0.000000
     18 H6          -4.2600     1.7690     0.0000 H          1 MOL       0.000000
     19 H7          -1.2300    -1.4510    -0.8710 H          1 MOL       0.000000
     20 H8          -1.2280    -1.4490     0.8800 H          1 MOL       0.000000
     21 H9          -2.0590     1.1150     0.0030 H          1 MOL       0.000000
@<TRIPOS>BOND
     1     1     3 ar  
     2     1     4 ar  
     3     1    13 1   
     4     2     4 ar  
     5     2     5 ar  
     6     2    14 1   
     7     3     9 ar  
     8     3    15 1   
     9     4    12 1   
    10     5     8 1   
    11     5     9 ar  
    12     6     7 1   
    13     6    10 am  
    14     6    11 2   
    15     7    16 1   
    16     7    17 1   
    17     7    18 1   
    18     8    10 1   
    19     8    19 1   
    20     8    20 1   
    21    10    21 1   
@<TRIPOS>SUBSTRUCTURE
     1 MOL         1 TEMP              0 ****  ****    0 ROOT
