@<TRIPOS>MOLECULE
*****
 18 18 0 0 0
SMALL
GASTEIGER

@<TRIPOS>ATOM
      1 N           1.0366   -0.0532   -0.0189 N.pl3   1  UNL1        0.2497
      2 C           2.3512   -0.0528   -0.0194 C.2     1  UNL1        0.2662
      3 N           3.0420   -0.6791   -0.9469 N.2     1  UNL1        0.2884
      4 H           4.0567   -0.6372   -0.9293 H       1  UNL1        0.3009
      5 H           2.6071   -1.1883   -1.7034 H       1  UNL1        0.3009
      6 C           3.0687    0.6704    1.0353 C.ar    1  UNL1        0.0608
      7 C           2.8628    2.0460    1.2208 C.ar    1  UNL1        0.0470
      8 C           3.5616    2.7375    2.2115 C.ar    1  UNL1        0.0610
      9 C           4.4661    2.0616    3.0278 C.ar    1  UNL1        0.0617
     10 C           4.6736    0.6944    2.8585 C.ar    1  UNL1        0.0610
     11 C           3.9798    0.0002    1.8661 C.ar    1  UNL1        0.0470
     12 H           0.4896   -0.5313   -0.7212 H       1  UNL1        0.2883
     13 H           0.5351    0.4191    0.7277 H       1  UNL1        0.2883
     14 H           2.1737    2.6000    0.5859 H       1  UNL1        0.0626
     15 H           3.4084    3.8068    2.3472 H       1  UNL1        0.0618
     16 H           5.0120    2.6030    3.7989 H       1  UNL1        0.0618
     17 H           5.3775    0.1723    3.5046 H       1  UNL1        0.0618
     18 H           4.1514   -1.0697    1.7615 H       1  UNL1        0.0626
@<TRIPOS>BOND
     1     1     2    1
     2     2     3    2
     3     3     4    1
     4     3     5    1
     5     2     6    1
     6     6     7   ar
     7     7     8   ar
     8     8     9   ar
     9     9    10   ar
    10    10    11   ar
    11     6    11   ar
    12     1    12    1
    13     1    13    1
    14     7    14    1
    15     8    15    1
    16     9    16    1
    17    10    17    1
    18    11    18    1
