@<TRIPOS>MOLECULE
MOL
   26    26     1     0     0
SMALL
No Charge or Current Charge


@<TRIPOS>ATOM
      1 C1          -1.3660     1.7120     0.3470 C.ar       1 MOL       0.000000
      2 C2          -2.5920     1.0480     0.4070 C.ar       1 MOL       0.000000
      3 C3          -1.4950    -0.9710    -0.3520 C.ar       1 MOL       0.000000
      4 C4          -0.1990     1.0580    -0.0570 C.ar       1 MOL       0.000000
      5 C5          -0.2670    -0.3050    -0.4140 C.ar       1 MOL       0.000000
      6 C6          -2.6440    -0.2960     0.0550 C.ar       1 MOL       0.000000
      7 C7           3.2520    -0.9010     0.0470 C.2        1 MOL       0.000000
      8 C8           4.1520    -1.2570     1.2210 C.3        1 MOL       0.000000
      9 C9           0.9510    -1.0830    -0.8780 C.3        1 MOL       0.000000
     10 C10          1.1130     1.8150    -0.0780 C.3        1 MOL       0.000000
     11 N1           1.9450    -1.2900     0.1710 N.am       1 MOL       0.000000
     12 O1           3.6780    -0.3090    -0.9390 O.2        1 MOL       0.000000
     13 O2           0.8500     3.2130    -0.0720 O.3        1 MOL       0.000000
     14 Cl1         -4.1760    -1.1620     0.1210 Cl         1 MOL       0.000000
     15 H1          -1.3100     2.7630     0.6070 H          1 MOL       0.000000
     16 H2          -3.4910     1.5680     0.7190 H          1 MOL       0.000000
     17 H3          -1.5600    -2.0180    -0.6330 H          1 MOL       0.000000
     18 H4           4.9140    -1.9650     0.8780 H          1 MOL       0.000000
     19 H5           4.6730    -0.3540     1.5520 H          1 MOL       0.000000
     20 H6           3.6210    -1.6960     2.0710 H          1 MOL       0.000000
     21 H7           0.6290    -2.0550    -1.2730 H          1 MOL       0.000000
     22 H8           1.4800    -0.5660    -1.6830 H          1 MOL       0.000000
     23 H9           1.7080     1.5280     0.8050 H          1 MOL       0.000000
     24 H10          1.7080     1.5270    -0.9560 H          1 MOL       0.000000
     25 H11          1.6520    -1.7680     1.0120 H          1 MOL       0.000000
     26 H12          1.7050     3.6670    -0.0700 H          1 MOL       0.000000
@<TRIPOS>BOND
     1     1     2 ar  
     2     1     4 ar  
     3     1    15 1   
     4     2     6 ar  
     5     2    16 1   
     6     3     5 ar  
     7     3     6 ar  
     8     3    17 1   
     9     4     5 ar  
    10     4    10 1   
    11     5     9 1   
    12     6    14 1   
    13     7     8 1   
    14     7    11 am  
    15     7    12 2   
    16     8    18 1   
    17     8    19 1   
    18     8    20 1   
    19     9    11 1   
    20     9    21 1   
    21     9    22 1   
    22    10    13 1   
    23    10    23 1   
    24    10    24 1   
    25    11    25 1   
    26    13    26 1   
@<TRIPOS>SUBSTRUCTURE
     1 MOL         1 TEMP              0 ****  ****    0 ROOT
