@<TRIPOS>MOLECULE
MOL
   26    26     1     0     0
SMALL
No Charge or Current Charge


@<TRIPOS>ATOM
 1  C1  -1.366000  1.712000  0.347000  C.ar  1  MOL  -0.204918 
 2  C2  -2.592000  1.048000  0.407000  C.ar  1  MOL  -0.071483 
 3  C3  -1.495000  -0.971000  -0.352000  C.ar  1  MOL  -0.057063 
 4  C4  -0.199000  1.058000  -0.057000  C.ar  1  MOL  0.036065 
 5  C5  -0.267000  -0.305000  -0.414000  C.ar  1  MOL  0.000503 
 6  C6  -2.644000  -0.296000  0.055000  C.ar  1  MOL  -0.060896 
 7  C7  3.252000  -0.901000  0.047000  C.2  1  MOL  0.510929 
 8  C8  4.152000  -1.257000  1.221000  C.3  1  MOL  -0.313908 
 9  C9  0.951000  -1.083000  -0.878000  C.3  1  MOL  -0.127512 
 10  C10  1.113000  1.815000  -0.078000  C.3  1  MOL  0.222997 
 11  N1  1.945000  -1.290000  0.171000  N.am  1  MOL  -0.353167 
 12  O1  3.678000  -0.309000  -0.939000  O.2  1  MOL  -0.514977 
 13  O2  0.850000  3.213000  -0.072000  O.3  1  MOL  -0.606664 
 14  Cl1  -4.176000  -1.162000  0.121000  Cl  1  MOL  -0.117604 
 15  H1  -1.310000  2.763000  0.607000  H  1  MOL  0.158589 
 16  H2  -3.491000  1.568000  0.719000  H  1  MOL  0.147127 
 17  H3  -1.560000  -2.018000  -0.633000  H  1  MOL  0.131755 
 18  H4  4.914000  -1.965000  0.878000  H  1  MOL  0.111818 
 19  H5  4.673000  -0.354000  1.552000  H  1  MOL  0.116842 
 20  H6  3.621000  -1.696000  2.071000  H  1  MOL  0.089295 
 21  H7  0.629000  -2.055000  -1.273000  H  1  MOL  0.111143 
 22  H8  1.480000  -0.566000  -1.683000  H  1  MOL  0.111143 
 23  H9  1.708000  1.528000  0.805000  H  1  MOL  0.012916 
 24  H10  1.708000  1.527000  -0.956000  H  1  MOL  0.012916 
 25  H11  1.652000  -1.768000  1.012000  H  1  MOL  0.256949 
 26  H12  1.705000  3.667000  -0.070000  H  1  MOL  0.397203 
@<TRIPOS>BOND
     1     1     2 ar  
     2     1     4 ar  
     3     1    15 1   
     4     2     6 ar  
     5     2    16 1   
     6     3     5 ar  
     7     3     6 ar  
     8     3    17 1   
     9     4     5 ar  
    10     4    10 1   
    11     5     9 1   
    12     6    14 1   
    13     7     8 1   
    14     7    11 am  
    15     7    12 2   
    16     8    18 1   
    17     8    19 1   
    18     8    20 1   
    19     9    11 1   
    20     9    21 1   
    21     9    22 1   
    22    10    13 1   
    23    10    23 1   
    24    10    24 1   
    25    11    25 1   
    26    13    26 1   
@<TRIPOS>SUBSTRUCTURE
     1 MOL         1 TEMP              0 ****  ****    0 ROOT
