@<TRIPOS>MOLECULE
MOL
   23    23     1     0     0
SMALL
No Charge or Current Charge


@<TRIPOS>ATOM
      1 C1          -0.2230     1.1720     0.0680 C.ar       1 MOL       0.000000
      2 C2           0.1220    -1.1950    -0.2070 C.ar       1 MOL       0.000000
      3 C3          -1.6030     0.9800     0.1040 C.ar       1 MOL       0.000000
      4 C4          -1.2500    -1.4030    -0.1790 C.ar       1 MOL       0.000000
      5 C5           0.6600     0.0970    -0.0730 C.ar       1 MOL       0.000000
      6 C6          -2.1240    -0.3160    -0.0160 C.ar       1 MOL       0.000000
      7 C7           2.1270     0.4040    -0.0970 C.2        1 MOL       0.000000
      8 C8           4.4070    -0.4520     0.2440 C.3        1 MOL       0.000000
      9 C9          -4.3870     0.4330     0.1490 C.3        1 MOL       0.000000
     10 N1           2.9710    -0.6500     0.1550 N.am       1 MOL       0.000000
     11 O1           2.5510     1.5320    -0.3370 O.2        1 MOL       0.000000
     12 O2          -3.4500    -0.6250     0.0040 O.3        1 MOL       0.000000
     13 H1           0.1950     2.1700     0.1480 H          1 MOL       0.000000
     14 H2           0.7730    -2.0490    -0.3730 H          1 MOL       0.000000
     15 H3          -2.2570     1.8350     0.2230 H          1 MOL       0.000000
     16 H4          -1.6730    -2.3960    -0.2930 H          1 MOL       0.000000
     17 H5           4.6890     0.3290    -0.4630 H          1 MOL       0.000000
     18 H6           4.9230    -1.3820    -0.0140 H          1 MOL       0.000000
     19 H7           4.7250    -0.1360     1.2470 H          1 MOL       0.000000
     20 H8          -5.3720    -0.0380     0.1360 H          1 MOL       0.000000
     21 H9          -4.3160     1.1500    -0.6790 H          1 MOL       0.000000
     22 H10         -4.2510     0.9640     1.1000 H          1 MOL       0.000000
     23 H11          2.5830    -1.4730     0.5920 H          1 MOL       0.000000
@<TRIPOS>BOND
     1     1     3 ar  
     2     1     5 ar  
     3     1    13 1   
     4     2     4 ar  
     5     2     5 ar  
     6     2    14 1   
     7     3     6 ar  
     8     3    15 1   
     9     4     6 ar  
    10     4    16 1   
    11     5     7 1   
    12     6    12 1   
    13     7    10 am  
    14     7    11 2   
    15     8    10 1   
    16     8    17 1   
    17     8    18 1   
    18     8    19 1   
    19     9    12 1   
    20     9    20 1   
    21     9    21 1   
    22     9    22 1   
    23    10    23 1   
@<TRIPOS>SUBSTRUCTURE
     1 MOL         1 TEMP              0 ****  ****    0 ROOT
