@<TRIPOS>MOLECULE
MOL
   23    23     1     0     0
SMALL
No Charge or Current Charge


@<TRIPOS>ATOM
 1  C1  -0.223000  1.172000  0.068000  C.ar  1  MOL  0.018158 
 2  C2  0.122000  -1.195000  -0.207000  C.ar  1  MOL  0.018158 
 3  C3  -1.603000  0.980000  0.104000  C.ar  1  MOL  -0.230872 
 4  C4  -1.250000  -1.403000  -0.179000  C.ar  1  MOL  -0.230872 
 5  C5  0.660000  0.097000  -0.073000  C.ar  1  MOL  -0.300533 
 6  C6  -2.124000  -0.316000  -0.016000  C.ar  1  MOL  0.299762 
 7  C7  2.127000  0.404000  -0.097000  C.2  1  MOL  0.596329 
 8  C8  4.407000  -0.452000  0.244000  C.3  1  MOL  -0.006198 
 9  C9  -4.387000  0.433000  0.149000  C.3  1  MOL  0.004183 
 10  N1  2.971000  -0.650000  0.155000  N.am  1  MOL  -0.470020 
 11  O1  2.551000  1.532000  -0.337000  O.2  1  MOL  -0.524049 
 12  O2  -3.450000  -0.625000  0.004000  O.3  1  MOL  -0.336382 
 13  H1  0.195000  2.170000  0.148000  H  1  MOL  0.100651 
 14  H2  0.773000  -2.049000  -0.373000  H  1  MOL  0.100651 
 15  H3  -2.257000  1.835000  0.223000  H  1  MOL  0.130915 
 16  H4  -1.673000  -2.396000  -0.293000  H  1  MOL  0.130915 
 17  H5  4.689000  0.329000  -0.463000  H  1  MOL  0.068972 
 18  H6  4.923000  -1.382000  -0.014000  H  1  MOL  0.058547 
 19  H7  4.725000  -0.136000  1.247000  H  1  MOL  0.062004 
 20  H8  -5.372000  -0.038000  0.136000  H  1  MOL  0.074329 
 21  H9  -4.316000  1.150000  -0.679000  H  1  MOL  0.074329 
 22  H10  -4.251000  0.964000  1.100000  H  1  MOL  0.074329 
 23  H11  2.583000  -1.473000  0.592000  H  1  MOL  0.286695 
@<TRIPOS>BOND
     1     1     3 ar  
     2     1     5 ar  
     3     1    13 1   
     4     2     4 ar  
     5     2     5 ar  
     6     2    14 1   
     7     3     6 ar  
     8     3    15 1   
     9     4     6 ar  
    10     4    16 1   
    11     5     7 1   
    12     6    12 1   
    13     7    10 am  
    14     7    11 2   
    15     8    10 1   
    16     8    17 1   
    17     8    18 1   
    18     8    19 1   
    19     9    12 1   
    20     9    20 1   
    21     9    21 1   
    22     9    22 1   
    23    10    23 1   
@<TRIPOS>SUBSTRUCTURE
     1 MOL         1 TEMP              0 ****  ****    0 ROOT
