@<TRIPOS>MOLECULE
*****
 18 17 0 0 0
SMALL
GASTEIGER

@<TRIPOS>ATOM
      1 C           3.0693   -0.8869    1.0682 C.3     1  UNL1        0.0639
      2 C           2.5992    0.0586   -0.0267 C.3     1  UNL1        0.0402
      3 C           3.1252    1.4820    0.1592 C.3     1  UNL1        0.0113
      4 N           4.5720    1.5665    0.1988 N.am    1  UNL1        0.3155
      5 C           5.3588    1.2586   -0.8862 C.2     1  UNL1        0.2099
      6 C           6.8367    1.4011   -0.6425 C.3     1  UNL1        0.0121
      7 O           4.9179    0.8841   -1.9687 O.2     1  UNL1        0.2761
      8 H           2.6747   -1.8925    0.8932 H       1  UNL1        0.0230
      9 H           2.7237   -0.5490    2.0498 H       1  UNL1        0.0230
     10 H           4.1614   -0.9580    1.0929 H       1  UNL1        0.0230
     11 H           1.5033    0.0830   -0.0340 H       1  UNL1        0.0278
     12 H           2.9089   -0.3406   -0.9987 H       1  UNL1        0.0278
     13 H           2.7531    1.8997    1.1013 H       1  UNL1        0.0462
     14 H           2.7691    2.1208   -0.6566 H       1  UNL1        0.0462
     15 H           5.0061    1.9075    1.0463 H       1  UNL1        0.1487
     16 H           7.0525    1.7819    0.3593 H       1  UNL1        0.0322
     17 H           7.2501    2.0980   -1.3764 H       1  UNL1        0.0322
     18 H           7.3123    0.4227   -0.7532 H       1  UNL1        0.0322
@<TRIPOS>BOND
     1     1     2    1
     2     2     3    1
     3     3     4    1
     4     4     5   am
     5     5     6    1
     6     5     7    2
     7     1     8    1
     8     1     9    1
     9     1    10    1
    10     2    11    1
    11     2    12    1
    12     3    13    1
    13     3    14    1
    14     4    15    1
    15     6    16    1
    16     6    17    1
    17     6    18    1
