@<TRIPOS>MOLECULE
MOL
   33    32     1     0     0
SMALL
No Charge or Current Charge


@<TRIPOS>ATOM
      1 C1           2.3530    -1.1710     0.1550 C.2        1 MOL       0.000000
      2 C2           0.2620     1.0220    -0.6390 C.2        1 MOL       0.000000
      3 C3           4.8160    -1.0430    -0.0120 C.3        1 MOL       0.000000
      4 C4           0.8300     3.3380    -0.2330 C.3        1 MOL       0.000000
      5 C5           0.6350     1.7920     1.7050 C.3        1 MOL       0.000000
      6 C6          -3.1860    -1.9480     0.8670 C.3        1 MOL       0.000000
      7 C7           1.0560    -1.3700    -0.6280 C.3        1 MOL       0.000000
      8 C8          -0.0510    -0.4120    -0.1520 C.3        1 MOL       0.000000
      9 N1           3.4910    -1.1850    -0.5900 N.am       1 MOL       0.000000
     10 N2          -1.3230    -0.8420    -0.7660 N.3        1 MOL       0.000000
     11 N3           0.6450     1.9730     0.2500 N.am       1 MOL       0.000000
     12 O1           2.3500    -1.0400     1.3780 O.2        1 MOL       0.000000
     13 O2           0.1600     1.2240    -1.8540 O.2        1 MOL       0.000000
     14 O3          -3.7500    -0.1590    -1.0170 O.2        1 MOL       0.000000
     15 O4          -2.4880     0.5890     1.0770 O.2        1 MOL       0.000000
     16 S1          -2.7600    -0.4090     0.0330 S.o2       1 MOL       0.000000
     17 H1           5.3060    -0.1270    -0.3640 H          1 MOL       0.000000
     18 H2           5.4490    -1.9020    -0.2630 H          1 MOL       0.000000
     19 H3           4.6950    -0.9900     1.0710 H          1 MOL       0.000000
     20 H4           0.0310     3.9910     0.1430 H          1 MOL       0.000000
     21 H5           0.8020     3.3290    -1.3220 H          1 MOL       0.000000
     22 H6           1.7940     3.7300     0.1110 H          1 MOL       0.000000
     23 H7           1.1150     0.8530     1.9840 H          1 MOL       0.000000
     24 H8          -0.3850     1.8290     2.1020 H          1 MOL       0.000000
     25 H9           1.2170     2.6060     2.1470 H          1 MOL       0.000000
     26 H10         -4.1060    -1.7640     1.4270 H          1 MOL       0.000000
     27 H11         -3.3380    -2.7230     0.1150 H          1 MOL       0.000000
     28 H12         -2.3780    -2.2190     1.5500 H          1 MOL       0.000000
     29 H13          0.7150    -2.3970    -0.4550 H          1 MOL       0.000000
     30 H14          1.2000    -1.2410    -1.7060 H          1 MOL       0.000000
     31 H15         -0.1420    -0.4900     0.9300 H          1 MOL       0.000000
     32 H16          3.4070    -1.2550    -1.5940 H          1 MOL       0.000000
     33 H17         -1.3840    -0.4660    -1.7170 H          1 MOL       0.000000
@<TRIPOS>BOND
     1     1     7 1   
     2     1     9 am  
     3     1    12 2   
     4     2     8 1   
     5     2    11 am  
     6     2    13 2   
     7     3     9 1   
     8     3    17 1   
     9     3    18 1   
    10     3    19 1   
    11     4    11 1   
    12     4    20 1   
    13     4    21 1   
    14     4    22 1   
    15     5    11 1   
    16     5    23 1   
    17     5    24 1   
    18     5    25 1   
    19     6    16 1   
    20     6    26 1   
    21     6    27 1   
    22     6    28 1   
    23     7     8 1   
    24     7    29 1   
    25     7    30 1   
    26     8    10 1   
    27     8    31 1   
    28     9    32 1   
    29    10    16 1   
    30    10    33 1   
    31    14    16 2   
    32    15    16 2   
@<TRIPOS>SUBSTRUCTURE
     1 MOL         1 TEMP              0 ****  ****    0 ROOT
