@<TRIPOS>MOLECULE
MOL
   32    31     1     0     0
SMALL
No Charge or Current Charge


@<TRIPOS>ATOM
 1  C1  1.650000  -0.500000  -0.428000  C.2  1  MOL  0.636107 
 2  C2  -0.527000  2.504000  0.793000  C.3  1  MOL  -0.146530 
 3  C3  0.353000  2.105000  -1.545000  C.3  1  MOL  -0.146530 
 4  C4  3.992000  -1.136000  -0.261000  C.3  1  MOL  -0.071473 
 5  C5  2.949000  -0.090000  1.697000  C.3  1  MOL  -0.089282 
 6  C6  -2.839000  -2.143000  -0.140000  C.3  1  MOL  -0.412669 
 7  C7  0.396000  0.175000  0.166000  C.3  1  MOL  -0.266507 
 8  C8  0.481000  1.721000  -0.063000  C.3  1  MOL  0.215584 
 9  N1  -0.734000  -0.514000  -0.468000  N.3  1  MOL  -0.497998 
 10  N2  2.788000  -0.566000  0.331000  N.am  1  MOL  -0.344286 
 11  O1  1.610000  -0.919000  -1.585000  O.2  1  MOL  -0.560519 
 12  O2  -3.149000  0.430000  -0.616000  O.2  1  MOL  -0.518639 
 13  O3  -2.131000  -0.269000  1.616000  O.2  1  MOL  -0.504040 
 14  S1  -2.279000  -0.457000  0.168000  S.o2  1  MOL  0.947437 
 15  H1  -1.555000  2.335000  0.459000  H  1  MOL  0.038866 
 16  H2  -0.470000  2.226000  1.851000  H  1  MOL  0.038866 
 17  H3  -0.325000  3.578000  0.711000  H  1  MOL  0.038866 
 18  H4  -0.662000  1.908000  -1.910000  H  1  MOL  0.038866 
 19  H5  1.058000  1.555000  -2.177000  H  1  MOL  0.038866 
 20  H6  0.542000  3.176000  -1.672000  H  1  MOL  0.038866 
 21  H7  4.795000  -0.389000  -0.291000  H  1  MOL  0.087465 
 22  H8  3.759000  -1.463000  -1.273000  H  1  MOL  0.084069 
 23  H9  4.338000  -1.992000  0.333000  H  1  MOL  0.088028 
 24  H10  3.284000  -0.911000  2.345000  H  1  MOL  0.094118 
 25  H11  2.019000  0.305000  2.101000  H  1  MOL  0.067267 
 26  H12  3.705000  0.705000  1.738000  H  1  MOL  0.084095 
 27  H13  -3.869000  -2.207000  0.218000  H  1  MOL  0.187843 
 28  H14  -2.804000  -2.341000  -1.214000  H  1  MOL  0.155917 
 29  H15  -2.193000  -2.833000  0.404000  H  1  MOL  0.144151 
 30  H16  0.297000  -0.021000  1.235000  H  1  MOL  0.182442 
 31  H17  1.489000  2.008000  0.272000  H  1  MOL  0.004301 
 32  H18  -0.696000  -0.508000  -1.484000  H  1  MOL  0.346457 
@<TRIPOS>BOND
     1     1     7 1   
     2     1    10 am  
     3     1    11 2   
     4     2     8 1   
     5     2    15 1   
     6     2    16 1   
     7     2    17 1   
     8     3     8 1   
     9     3    18 1   
    10     3    19 1   
    11     3    20 1   
    12     4    10 1   
    13     4    21 1   
    14     4    22 1   
    15     4    23 1   
    16     5    10 1   
    17     5    24 1   
    18     5    25 1   
    19     5    26 1   
    20     6    14 1   
    21     6    27 1   
    22     6    28 1   
    23     6    29 1   
    24     7     8 1   
    25     7     9 1   
    26     7    30 1   
    27     8    31 1   
    28     9    14 1   
    29     9    32 1   
    30    12    14 2   
    31    13    14 2   
@<TRIPOS>SUBSTRUCTURE
     1 MOL         1 TEMP              0 ****  ****    0 ROOT
