@<TRIPOS>MOLECULE
MOL
   32    31     1     0     0
SMALL
No Charge or Current Charge


@<TRIPOS>ATOM
      1 C1           1.6500    -0.5000    -0.4280 C.2        1 MOL       0.000000
      2 C2          -0.5270     2.5040     0.7930 C.3        1 MOL       0.000000
      3 C3           0.3530     2.1050    -1.5450 C.3        1 MOL       0.000000
      4 C4           3.9920    -1.1360    -0.2610 C.3        1 MOL       0.000000
      5 C5           2.9490    -0.0900     1.6970 C.3        1 MOL       0.000000
      6 C6          -2.8390    -2.1430    -0.1400 C.3        1 MOL       0.000000
      7 C7           0.3960     0.1750     0.1660 C.3        1 MOL       0.000000
      8 C8           0.4810     1.7210    -0.0630 C.3        1 MOL       0.000000
      9 N1          -0.7340    -0.5140    -0.4680 N.3        1 MOL       0.000000
     10 N2           2.7880    -0.5660     0.3310 N.am       1 MOL       0.000000
     11 O1           1.6100    -0.9190    -1.5850 O.2        1 MOL       0.000000
     12 O2          -3.1490     0.4300    -0.6160 O.2        1 MOL       0.000000
     13 O3          -2.1310    -0.2690     1.6160 O.2        1 MOL       0.000000
     14 S1          -2.2790    -0.4570     0.1680 S.o2       1 MOL       0.000000
     15 H1          -1.5550     2.3350     0.4590 H          1 MOL       0.000000
     16 H2          -0.4700     2.2260     1.8510 H          1 MOL       0.000000
     17 H3          -0.3250     3.5780     0.7110 H          1 MOL       0.000000
     18 H4          -0.6620     1.9080    -1.9100 H          1 MOL       0.000000
     19 H5           1.0580     1.5550    -2.1770 H          1 MOL       0.000000
     20 H6           0.5420     3.1760    -1.6720 H          1 MOL       0.000000
     21 H7           4.7950    -0.3890    -0.2910 H          1 MOL       0.000000
     22 H8           3.7590    -1.4630    -1.2730 H          1 MOL       0.000000
     23 H9           4.3380    -1.9920     0.3330 H          1 MOL       0.000000
     24 H10          3.2840    -0.9110     2.3450 H          1 MOL       0.000000
     25 H11          2.0190     0.3050     2.1010 H          1 MOL       0.000000
     26 H12          3.7050     0.7050     1.7380 H          1 MOL       0.000000
     27 H13         -3.8690    -2.2070     0.2180 H          1 MOL       0.000000
     28 H14         -2.8040    -2.3410    -1.2140 H          1 MOL       0.000000
     29 H15         -2.1930    -2.8330     0.4040 H          1 MOL       0.000000
     30 H16          0.2970    -0.0210     1.2350 H          1 MOL       0.000000
     31 H17          1.4890     2.0080     0.2720 H          1 MOL       0.000000
     32 H18         -0.6960    -0.5080    -1.4840 H          1 MOL       0.000000
@<TRIPOS>BOND
     1     1     7 1   
     2     1    10 am  
     3     1    11 2   
     4     2     8 1   
     5     2    15 1   
     6     2    16 1   
     7     2    17 1   
     8     3     8 1   
     9     3    18 1   
    10     3    19 1   
    11     3    20 1   
    12     4    10 1   
    13     4    21 1   
    14     4    22 1   
    15     4    23 1   
    16     5    10 1   
    17     5    24 1   
    18     5    25 1   
    19     5    26 1   
    20     6    14 1   
    21     6    27 1   
    22     6    28 1   
    23     6    29 1   
    24     7     8 1   
    25     7     9 1   
    26     7    30 1   
    27     8    31 1   
    28     9    14 1   
    29     9    32 1   
    30    12    14 2   
    31    13    14 2   
@<TRIPOS>SUBSTRUCTURE
     1 MOL         1 TEMP              0 ****  ****    0 ROOT
