@<TRIPOS>MOLECULE
*****
 25 25 0 0 0
SMALL
GASTEIGER

@<TRIPOS>ATOM
      1 C           4.2245   -2.5527   -2.1757 C.3     1  UNL1        0.0122
      2 C           4.8384   -1.4488   -1.3593 C.2     1  UNL1        0.2102
      3 O           5.7947   -1.6377   -0.6152 O.2     1  UNL1        0.2761
      4 N           4.2339   -0.2300   -1.5415 N.am    1  UNL1        0.3114
      5 C           4.7340    0.9815   -0.9220 C.3     1  UNL1        0.0368
      6 C           5.0912    2.0370   -1.9423 C.ar    1  UNL1        0.0301
      7 C           5.0161    3.3931   -1.5950 C.ar    1  UNL1        0.0571
      8 C           5.2686    4.3834   -2.5455 C.ar    1  UNL1        0.0612
      9 C           5.5818    4.0309   -3.8581 C.ar    1  UNL1        0.0588
     10 C           5.6925    2.6854   -4.2181 C.ar    1  UNL1        0.0501
     11 C           5.9726    2.2777   -5.6336 C.3     1  UNL1        0.0397
     12 C           5.4999    1.6999   -3.2421 C.ar    1  UNL1        0.0542
     13 H           4.7466   -3.4912   -1.9677 H       1  UNL1        0.0322
     14 H           4.3217   -2.3266   -3.2414 H       1  UNL1        0.0322
     15 H           3.1697   -2.6712   -1.9145 H       1  UNL1        0.0322
     16 H           3.4729   -0.1387   -2.2016 H       1  UNL1        0.1490
     17 H           5.5922    0.7743   -0.2760 H       1  UNL1        0.0512
     18 H           3.9099    1.3505   -0.3002 H       1  UNL1        0.0512
     19 H           4.7442    3.6883   -0.5837 H       1  UNL1        0.0621
     20 H           5.1972    5.4322   -2.2690 H       1  UNL1        0.0618
     21 H           5.7306    4.8135   -4.5980 H       1  UNL1        0.0620
     22 H           5.9646    3.1398   -6.3079 H       1  UNL1        0.0278
     23 H           5.1933    1.5876   -5.9766 H       1  UNL1        0.0278
     24 H           6.9463    1.7854   -5.7090 H       1  UNL1        0.0278
     25 H           5.6375    0.6551   -3.5143 H       1  UNL1        0.0623
@<TRIPOS>BOND
     1     1     2    1
     2     2     3    2
     3     2     4   am
     4     4     5    1
     5     5     6    1
     6     6     7   ar
     7     7     8   ar
     8     8     9   ar
     9     9    10   ar
    10    10    11    1
    11    10    12   ar
    12     6    12   ar
    13     1    13    1
    14     1    14    1
    15     1    15    1
    16     4    16    1
    17     5    17    1
    18     5    18    1
    19     7    19    1
    20     8    20    1
    21     9    21    1
    22    11    22    1
    23    11    23    1
    24    11    24    1
    25    12    25    1
