@<TRIPOS>MOLECULE
MOL
   28    27     1     0     0
SMALL
No Charge or Current Charge


@<TRIPOS>ATOM
      1 C1           2.1760    -0.7730     0.0170 C.2        1 MOL       0.000000
      2 C2          -0.9530     0.2290     0.4530 C.2        1 MOL       0.000000
      3 C3           1.5470    -2.0650    -0.4990 C.3        1 MOL       0.000000
      4 C4          -0.1850     1.7230    -1.4450 C.3        1 MOL       0.000000
      5 C5          -3.2030    -0.3970     1.1530 C.3        1 MOL       0.000000
      6 C6          -2.6350    -0.6640    -1.2150 C.3        1 MOL       0.000000
      7 C7           1.9930     1.6100     0.4950 C.3        1 MOL       0.000000
      8 C8           0.1010     0.4220    -0.6720 C.3        1 MOL       0.000000
      9 N1          -2.1840    -0.2860     0.1140 N.am       1 MOL       0.000000
     10 N2           1.4560     0.3980    -0.1270 N.am       1 MOL       0.000000
     11 O1           3.2910    -0.7940     0.5260 O.2        1 MOL       0.000000
     12 O2          -0.6840     0.5510     1.6060 O.2        1 MOL       0.000000
     13 H1           1.4320    -2.0560    -1.5900 H          1 MOL       0.000000
     14 H2           2.2240    -2.8760    -0.2300 H          1 MOL       0.000000
     15 H3           0.5640    -2.2580    -0.0560 H          1 MOL       0.000000
     16 H4          -0.2050     2.5880    -0.7780 H          1 MOL       0.000000
     17 H5           0.5830     1.8860    -2.2080 H          1 MOL       0.000000
     18 H6          -1.1570     1.6660    -1.9440 H          1 MOL       0.000000
     19 H7          -4.0590     0.2520     0.9240 H          1 MOL       0.000000
     20 H8          -2.7620    -0.0990     2.1020 H          1 MOL       0.000000
     21 H9          -3.5630    -1.4320     1.2200 H          1 MOL       0.000000
     22 H10         -3.0550    -1.6780    -1.1920 H          1 MOL       0.000000
     23 H11         -1.8230    -0.6550    -1.9400 H          1 MOL       0.000000
     24 H12         -3.4210     0.0170    -1.5720 H          1 MOL       0.000000
     25 H13          2.2240     2.3730    -0.2570 H          1 MOL       0.000000
     26 H14          2.9130     1.3290     1.0040 H          1 MOL       0.000000
     27 H15          1.2770     2.0060     1.2190 H          1 MOL       0.000000
     28 H16          0.0330    -0.4010    -1.3830 H          1 MOL       0.000000
@<TRIPOS>BOND
     1     1     3 1   
     2     1    10 am  
     3     1    11 2   
     4     2     8 1   
     5     2     9 am  
     6     2    12 2   
     7     3    13 1   
     8     3    14 1   
     9     3    15 1   
    10     4     8 1   
    11     4    16 1   
    12     4    17 1   
    13     4    18 1   
    14     5     9 1   
    15     5    19 1   
    16     5    20 1   
    17     5    21 1   
    18     6     9 1   
    19     6    22 1   
    20     6    23 1   
    21     6    24 1   
    22     7    10 1   
    23     7    25 1   
    24     7    26 1   
    25     7    27 1   
    26     8    10 1   
    27     8    28 1   
@<TRIPOS>SUBSTRUCTURE
     1 MOL         1 TEMP              0 ****  ****    0 ROOT
