@<TRIPOS>MOLECULE
MOL
   42    42     1     0     0
SMALL
No Charge or Current Charge


@<TRIPOS>ATOM
      1 C1           0.4390     1.5420    -0.5320 C.2        1 MOL       0.000000
      2 C2          -4.3640    -1.6830    -0.4150 C.3        1 MOL       0.000000
      3 C3          -3.2070    -1.4510    -1.3960 C.3        1 MOL       0.000000
      4 C4          -4.4170    -0.5730     0.6430 C.3        1 MOL       0.000000
      5 C5          -1.8580    -1.3000    -0.6740 C.3        1 MOL       0.000000
      6 C6          -3.0720    -0.4260     1.3680 C.3        1 MOL       0.000000
      7 C7          -1.8950    -0.1910     0.3960 C.3        1 MOL       0.000000
      8 C8          -0.0680     3.8780    -0.9770 C.3        1 MOL       0.000000
      9 C9           0.4440     3.2280     1.3350 C.3        1 MOL       0.000000
     10 C10          2.7650    -2.7590     0.7380 C.3        1 MOL       0.000000
     11 C11         -0.5890    -0.0460     1.2030 C.3        1 MOL       0.000000
     12 C12          0.7030     0.3840     0.4580 C.3        1 MOL       0.000000
     13 N1           1.2970    -0.7230    -0.3110 N.3        1 MOL       0.000000
     14 N2           0.2630     2.8050    -0.0450 N.am       1 MOL       0.000000
     15 O1           0.3490     1.2830    -1.7340 O.2        1 MOL       0.000000
     16 O2           3.4860    -0.2320     0.9890 O.2        1 MOL       0.000000
     17 O3           3.5530    -1.3100    -1.3310 O.2        1 MOL       0.000000
     18 S1           2.9160    -1.1330    -0.0240 S.o2       1 MOL       0.000000
     19 H1          -5.3180    -1.7420    -0.9550 H          1 MOL       0.000000
     20 H2          -4.2270    -2.6540     0.0860 H          1 MOL       0.000000
     21 H3          -3.1490    -2.2740    -2.1200 H          1 MOL       0.000000
     22 H4          -3.4050    -0.5400    -1.9790 H          1 MOL       0.000000
     23 H5          -4.6700     0.3800     0.1540 H          1 MOL       0.000000
     24 H6          -5.2150    -0.7710     1.3700 H          1 MOL       0.000000
     25 H7          -1.5900    -2.2530    -0.1920 H          1 MOL       0.000000
     26 H8          -1.0760    -1.0880    -1.4070 H          1 MOL       0.000000
     27 H9          -3.1240     0.3970     2.0950 H          1 MOL       0.000000
     28 H10         -2.8740    -1.3400     1.9500 H          1 MOL       0.000000
     29 H11         -2.0850     0.7620    -0.1220 H          1 MOL       0.000000
     30 H12         -0.9870     4.3840    -0.6570 H          1 MOL       0.000000
     31 H13         -0.2080     3.4490    -1.9680 H          1 MOL       0.000000
     32 H14          0.7420     4.6180    -1.0110 H          1 MOL       0.000000
     33 H15          1.1790     4.0420     1.3800 H          1 MOL       0.000000
     34 H16          0.8050     2.4150     1.9620 H          1 MOL       0.000000
     35 H17         -0.5010     3.5980     1.7540 H          1 MOL       0.000000
     36 H18          3.7770    -3.1110     0.9500 H          1 MOL       0.000000
     37 H19          2.1940    -2.6650     1.6630 H          1 MOL       0.000000
     38 H20          2.2640    -3.4280     0.0370 H          1 MOL       0.000000
     39 H21         -0.7700     0.6870     2.0020 H          1 MOL       0.000000
     40 H22         -0.3630    -0.9950     1.7060 H          1 MOL       0.000000
     41 H23          1.4400     0.6840     1.2060 H          1 MOL       0.000000
     42 H24          1.1870    -0.5410    -1.3130 H          1 MOL       0.000000
@<TRIPOS>BOND
     1     1    12 1   
     2     1    14 am  
     3     1    15 2   
     4     2     3 1   
     5     2     4 1   
     6     2    19 1   
     7     2    20 1   
     8     3     5 1   
     9     3    21 1   
    10     3    22 1   
    11     4     6 1   
    12     4    23 1   
    13     4    24 1   
    14     5     7 1   
    15     5    25 1   
    16     5    26 1   
    17     6     7 1   
    18     6    27 1   
    19     6    28 1   
    20     7    11 1   
    21     7    29 1   
    22     8    14 1   
    23     8    30 1   
    24     8    31 1   
    25     8    32 1   
    26     9    14 1   
    27     9    33 1   
    28     9    34 1   
    29     9    35 1   
    30    10    18 1   
    31    10    36 1   
    32    10    37 1   
    33    10    38 1   
    34    11    12 1   
    35    11    39 1   
    36    11    40 1   
    37    12    13 1   
    38    12    41 1   
    39    13    18 1   
    40    13    42 1   
    41    16    18 2   
    42    17    18 2   
@<TRIPOS>SUBSTRUCTURE
     1 MOL         1 TEMP              0 ****  ****    0 ROOT
