@<TRIPOS>MOLECULE
MOL
   42    42     1     0     0
SMALL
No Charge or Current Charge


@<TRIPOS>ATOM
 1  C1  0.439000  1.542000  -0.532000  C.2  1  MOL  0.636107 
 2  C2  -4.364000  -1.683000  -0.415000  C.3  1  MOL  -0.006084 
 3  C3  -3.207000  -1.451000  -1.396000  C.3  1  MOL  0.043686 
 4  C4  -4.417000  -0.573000  0.643000  C.3  1  MOL  0.043686 
 5  C5  -1.858000  -1.300000  -0.674000  C.3  1  MOL  0.008043 
 6  C6  -3.072000  -0.426000  1.368000  C.3  1  MOL  0.008043 
 7  C7  -1.895000  -0.191000  0.396000  C.3  1  MOL  0.195024 
 8  C8  -0.068000  3.878000  -0.977000  C.3  1  MOL  -0.071473 
 9  C9  0.444000  3.228000  1.335000  C.3  1  MOL  -0.089282 
 10  C10  2.765000  -2.759000  0.738000  C.3  1  MOL  -0.412669 
 11  C11  -0.589000  -0.046000  1.203000  C.3  1  MOL  -0.096932 
 12  C12  0.703000  0.384000  0.458000  C.3  1  MOL  -0.215488 
 13  N1  1.297000  -0.723000  -0.311000  N.3  1  MOL  -0.497998 
 14  N2  0.263000  2.805000  -0.045000  N.am  1  MOL  -0.344286 
 15  O1  0.349000  1.283000  -1.734000  O.2  1  MOL  -0.560519 
 16  O2  3.486000  -0.232000  0.989000  O.2  1  MOL  -0.518639 
 17  O3  3.553000  -1.310000  -1.331000  O.2  1  MOL  -0.504040 
 18  S1  2.916000  -1.133000  -0.024000  S.o2  1  MOL  0.947437 
 19  H1  -5.318000  -1.742000  -0.955000  H  1  MOL  -0.010166 
 20  H2  -4.227000  -2.654000  0.086000  H  1  MOL  -0.010166 
 21  H3  -3.149000  -2.274000  -2.120000  H  1  MOL  -0.013139 
 22  H4  -3.405000  -0.540000  -1.979000  H  1  MOL  -0.013139 
 23  H5  -4.670000  0.380000  0.154000  H  1  MOL  -0.013139 
 24  H6  -5.215000  -0.771000  1.370000  H  1  MOL  -0.013139 
 25  H7  -1.590000  -2.253000  -0.192000  H  1  MOL  -0.022718 
 26  H8  -1.076000  -1.088000  -1.407000  H  1  MOL  -0.022718 
 27  H9  -3.124000  0.397000  2.095000  H  1  MOL  -0.022718 
 28  H10  -2.874000  -1.340000  1.950000  H  1  MOL  -0.022718 
 29  H11  -2.085000  0.762000  -0.122000  H  1  MOL  -0.025112 
 30  H12  -0.987000  4.384000  -0.657000  H  1  MOL  0.087465 
 31  H13  -0.208000  3.449000  -1.968000  H  1  MOL  0.084069 
 32  H14  0.742000  4.618000  -1.011000  H  1  MOL  0.088028 
 33  H15  1.179000  4.042000  1.380000  H  1  MOL  0.094118 
 34  H16  0.805000  2.415000  1.962000  H  1  MOL  0.067267 
 35  H17  -0.501000  3.598000  1.754000  H  1  MOL  0.084095 
 36  H18  3.777000  -3.111000  0.950000  H  1  MOL  0.187843 
 37  H19  2.194000  -2.665000  1.663000  H  1  MOL  0.155917 
 38  H20  2.264000  -3.428000  0.037000  H  1  MOL  0.144151 
 39  H21  -0.770000  0.687000  2.002000  H  1  MOL  0.049342 
 40  H22  -0.363000  -0.995000  1.706000  H  1  MOL  0.049342 
 41  H23  1.440000  0.684000  1.206000  H  1  MOL  0.186162 
 42  H24  1.187000  -0.541000  -1.313000  H  1  MOL  0.346457 
@<TRIPOS>BOND
     1     1    12 1   
     2     1    14 am  
     3     1    15 2   
     4     2     3 1   
     5     2     4 1   
     6     2    19 1   
     7     2    20 1   
     8     3     5 1   
     9     3    21 1   
    10     3    22 1   
    11     4     6 1   
    12     4    23 1   
    13     4    24 1   
    14     5     7 1   
    15     5    25 1   
    16     5    26 1   
    17     6     7 1   
    18     6    27 1   
    19     6    28 1   
    20     7    11 1   
    21     7    29 1   
    22     8    14 1   
    23     8    30 1   
    24     8    31 1   
    25     8    32 1   
    26     9    14 1   
    27     9    33 1   
    28     9    34 1   
    29     9    35 1   
    30    10    18 1   
    31    10    36 1   
    32    10    37 1   
    33    10    38 1   
    34    11    12 1   
    35    11    39 1   
    36    11    40 1   
    37    12    13 1   
    38    12    41 1   
    39    13    18 1   
    40    13    42 1   
    41    16    18 2   
    42    17    18 2   
@<TRIPOS>SUBSTRUCTURE
     1 MOL         1 TEMP              0 ****  ****    0 ROOT
