@<TRIPOS>MOLECULE
*****
 44 44 0 0 0
SMALL
GASTEIGER

@<TRIPOS>ATOM
      1 C           1.0872    1.1645   -0.4714 C.3     1  UNL1        0.0002
      2 N           2.5266    1.0112   -0.4959 N.am    1  UNL1        0.3140
      3 C           3.1493    0.1393   -1.3529 C.2     1  UNL1        0.2579
      4 O           2.5821   -0.5142   -2.2248 O.2     1  UNL1        0.2700
      5 C           4.6736    0.0401   -1.2124 C.3     1  UNL1        0.0449
      6 N           5.2734   -0.3107   -2.5558 N.4     1  UNL1        0.2425
      7 H           4.7993   -1.1700   -2.8646 H       1  UNL1        0.2026
      8 H           4.9357    0.4028   -3.2115 H       1  UNL1        0.2026
      9 C           6.7920   -0.4218   -2.6142 C.3     1  UNL1        0.0584
     10 H           7.1348    0.5518   -2.2431 H       1  UNL1        0.0952
     11 C           7.3512   -1.4491   -1.5927 C.2     1  UNL1        0.2636
     12 O           8.0365   -0.9949   -0.6696 O.2     1  UNL1        0.2694
     13 N           7.0200   -2.7931   -1.6487 N.am    1  UNL1        0.3030
     14 C           6.2571   -3.4822   -2.6782 C.3     1  UNL1        0.0030
     15 C           7.5951   -3.6878   -0.6411 C.3     1  UNL1        0.0030
     16 C           7.2641   -0.5776   -4.0880 C.3     1  UNL1        0.0107
     17 C           6.8162    0.5886   -4.9965 C.3     1  UNL1        0.0446
     18 C           7.5052    1.9002   -4.6304 C.3     1  UNL1        0.0526
     19 C           9.0163    1.7686   -4.7762 C.3     1  UNL1        0.0530
     20 C           9.5851    0.5625   -4.0291 C.3     1  UNL1        0.0526
     21 C           8.7927   -0.7286   -4.2475 C.3     1  UNL1        0.0446
     22 H           0.8350    1.9259    0.2713 H       1  UNL1        0.0426
     23 H           0.6296    0.2110   -0.1948 H       1  UNL1        0.0426
     24 H           0.7289    1.4709   -1.4576 H       1  UNL1        0.0426
     25 H           3.0502    1.5331    0.1971 H       1  UNL1        0.1485
     26 H           4.9122   -0.7647   -0.5131 H       1  UNL1        0.0912
     27 H           5.1013    0.9952   -0.9007 H       1  UNL1        0.0912
     28 H           5.7686   -2.8066   -3.3708 H       1  UNL1        0.0428
     29 H           5.4825   -4.0837   -2.1928 H       1  UNL1        0.0428
     30 H           6.9323   -4.1345   -3.2384 H       1  UNL1        0.0428
     31 H           8.1297   -3.1537    0.1482 H       1  UNL1        0.0428
     32 H           8.2911   -4.3720   -1.1362 H       1  UNL1        0.0428
     33 H           6.7857   -4.2644   -0.1820 H       1  UNL1        0.0428
     34 H           6.8204   -1.4856   -4.5053 H       1  UNL1        0.0361
     35 H           5.7307    0.7166   -4.9883 H       1  UNL1        0.0270
     36 H           7.0705    0.3392   -6.0357 H       1  UNL1        0.0270
     37 H           7.2527    2.2023   -3.6082 H       1  UNL1        0.0265
     38 H           7.1422    2.7010   -5.2841 H       1  UNL1        0.0265
     39 H           9.5031    2.6842   -4.4203 H       1  UNL1        0.0265
     40 H           9.2599    1.6804   -5.8424 H       1  UNL1        0.0265
     41 H           9.6327    0.7851   -2.9577 H       1  UNL1        0.0265
     42 H          10.6195    0.4037   -4.3610 H       1  UNL1        0.0265
     43 H           9.1825   -1.5160   -3.5932 H       1  UNL1        0.0270
     44 H           8.9894   -1.0726   -5.2728 H       1  UNL1        0.0270
@<TRIPOS>BOND
     1     1     2    1
     2     2     3   am
     3     3     4    2
     4     3     5    1
     5     5     6    1
     6     6     7    1
     7     6     8    1
     8     6     9    1
     9     9    10    1
    10     9    11    1
    11    11    12    2
    12    11    13   am
    13    13    14    1
    14    13    15    1
    15     9    16    1
    16    16    17    1
    17    17    18    1
    18    18    19    1
    19    19    20    1
    20    20    21    1
    21    16    21    1
    22     1    22    1
    23     1    23    1
    24     1    24    1
    25     2    25    1
    26     5    26    1
    27     5    27    1
    28    14    28    1
    29    14    29    1
    30    14    30    1
    31    15    31    1
    32    15    32    1
    33    15    33    1
    34    16    34    1
    35    17    35    1
    36    17    36    1
    37    18    37    1
    38    18    38    1
    39    19    39    1
    40    19    40    1
    41    20    41    1
    42    20    42    1
    43    21    43    1
    44    21    44    1
