@<TRIPOS>MOLECULE
MOL
   18    18     1     0     0
SMALL
No Charge or Current Charge


@<TRIPOS>ATOM
 1  C1  2.154000  1.268000  0.000000  C.ar  1  MOL  -0.013749 
 2  C2  3.024000  0.176000  0.000000  C.ar  1  MOL  -0.297044 
 3  C3  0.778000  1.061000  0.000000  C.ar  1  MOL  -0.311757 
 4  C4  2.463000  -1.099000  0.000000  C.ar  1  MOL  0.278830 
 5  C5  0.327000  -0.268000  0.000000  C.ar  1  MOL  0.522383 
 6  C6  -2.153000  0.170000  0.000000  C.2  1  MOL  0.510929 
 7  C7  -3.458000  -0.613000  0.000000  C.3  1  MOL  -0.313908 
 8  N1  1.146000  -1.329000  0.000000  N.ar  1  MOL  -0.625372 
 9  N2  -1.029000  -0.632000  0.000000  N.am  1  MOL  -0.353167 
 10  O1  -2.115000  1.392000  0.000000  O.2  1  MOL  -0.514977 
 11  H1  2.543000  2.283000  0.000000  H  1  MOL  0.143176 
 12  H2  4.102000  0.306000  0.000000  H  1  MOL  0.135878 
 13  H3  0.066000  1.874000  0.000000  H  1  MOL  0.181664 
 14  H4  3.096000  -1.985000  0.000000  H  1  MOL  0.082210 
 15  H5  -3.533000  -1.254000  0.886000  H  1  MOL  0.111818 
 16  H6  -3.533000  -1.254000  -0.886000  H  1  MOL  0.116842 
 17  H7  -4.287000  0.096000  -0.000000  H  1  MOL  0.089295 
 18  H8  -1.153000  -1.638000  0.000000  H  1  MOL  0.256949 
@<TRIPOS>BOND
     1     1     2 ar  
     2     1     3 ar  
     3     1    11 1   
     4     2     4 ar  
     5     2    12 1   
     6     3     5 ar  
     7     3    13 1   
     8     4     8 ar  
     9     4    14 1   
    10     5     8 ar  
    11     5     9 1   
    12     6     7 1   
    13     6     9 am  
    14     6    10 2   
    15     7    15 1   
    16     7    16 1   
    17     7    17 1   
    18     9    18 1   
@<TRIPOS>SUBSTRUCTURE
     1 MOL         1 TEMP              0 ****  ****    0 ROOT
