@<TRIPOS>MOLECULE
MOL
   18    18     1     0     0
SMALL
No Charge or Current Charge


@<TRIPOS>ATOM
      1 C1           2.1540     1.2680     0.0000 C.ar       1 MOL       0.000000
      2 C2           3.0240     0.1760     0.0000 C.ar       1 MOL       0.000000
      3 C3           0.7780     1.0610     0.0000 C.ar       1 MOL       0.000000
      4 C4           2.4630    -1.0990     0.0000 C.ar       1 MOL       0.000000
      5 C5           0.3270    -0.2680     0.0000 C.ar       1 MOL       0.000000
      6 C6          -2.1530     0.1700     0.0000 C.2        1 MOL       0.000000
      7 C7          -3.4580    -0.6130     0.0000 C.3        1 MOL       0.000000
      8 N1           1.1460    -1.3290     0.0000 N.ar       1 MOL       0.000000
      9 N2          -1.0290    -0.6320     0.0000 N.am       1 MOL       0.000000
     10 O1          -2.1150     1.3920     0.0000 O.2        1 MOL       0.000000
     11 H1           2.5430     2.2830     0.0000 H          1 MOL       0.000000
     12 H2           4.1020     0.3060     0.0000 H          1 MOL       0.000000
     13 H3           0.0660     1.8740     0.0000 H          1 MOL       0.000000
     14 H4           3.0960    -1.9850     0.0000 H          1 MOL       0.000000
     15 H5          -3.5330    -1.2540     0.8860 H          1 MOL       0.000000
     16 H6          -3.5330    -1.2540    -0.8860 H          1 MOL       0.000000
     17 H7          -4.2870     0.0960    -0.0000 H          1 MOL       0.000000
     18 H8          -1.1530    -1.6380     0.0000 H          1 MOL       0.000000
@<TRIPOS>BOND
     1     1     2 ar  
     2     1     3 ar  
     3     1    11 1   
     4     2     4 ar  
     5     2    12 1   
     6     3     5 ar  
     7     3    13 1   
     8     4     8 ar  
     9     4    14 1   
    10     5     8 ar  
    11     5     9 1   
    12     6     7 1   
    13     6     9 am  
    14     6    10 2   
    15     7    15 1   
    16     7    16 1   
    17     7    17 1   
    18     9    18 1   
@<TRIPOS>SUBSTRUCTURE
     1 MOL         1 TEMP              0 ****  ****    0 ROOT
