@<TRIPOS>MOLECULE
MOL
   22    21     1     0     0
SMALL
rc


@<TRIPOS>ATOM
      1 C1          1.7270   -0.4280    0.2130 C.2       1 MOL      0.419932
      2 C2         -1.3340    0.3550   -0.1130 C.2       1 MOL      0.468913
      3 C3          3.0720   -1.0520   -0.1330 C.3       1 MOL     -0.016421
      4 C4          0.2550    2.3070    0.2240 C.3       1 MOL     -0.011173
      5 C5         -2.5240   -1.7910    0.0330 C.3       1 MOL     -0.007744
      6 C6         -0.0720    1.0830   -0.6370 C.3       1 MOL      0.009284
      7 N1         -1.4330   -0.9610   -0.4470 N.am      1 MOL     -0.472188
      8 N2          1.0760    0.1850   -0.8370 N.am      1 MOL     -0.384772
      9 O1          1.2510   -0.4760    1.3380 O.2       1 MOL     -0.497636
     10 O2         -2.2150    0.9800    0.4640 O.2       1 MOL     -0.471078
     11 H1          3.1890   -1.2690   -1.2000 H         1 MOL      0.031375
     12 H2          3.8730   -0.3680    0.1700 H         1 MOL      0.031375
     13 H3          3.1890   -1.9740    0.4400 H         1 MOL      0.031375
     14 H4          0.5710    1.9960    1.2220 H         1 MOL      0.024164
     15 H5          1.0550    2.8940   -0.2410 H         1 MOL      0.024164
     16 H6         -0.6370    2.9290    0.3230 H         1 MOL      0.024164
     17 H7         -2.2360   -2.3710    0.9190 H         1 MOL      0.061722
     18 H8         -2.8510   -2.4800   -0.7530 H         1 MOL      0.061722
     19 H9         -3.3500   -1.1310    0.3020 H         1 MOL      0.061722
     20 H10        -0.3440    1.4240   -1.6450 H         1 MOL      0.077036
     21 H11        -0.5970   -1.4100   -0.7900 H         1 MOL      0.294765
     22 H12         1.6040    0.3130   -1.6900 H         1 MOL      0.239297
@<TRIPOS>BOND
     1    1    3 1   
     2    1    8 am  
     3    1    9 2   
     4    2    6 1   
     5    2    7 am  
     6    2   10 2   
     7    3   11 1   
     8    3   12 1   
     9    3   13 1   
    10    4    6 1   
    11    4   14 1   
    12    4   15 1   
    13    4   16 1   
    14    5    7 1   
    15    5   17 1   
    16    5   18 1   
    17    5   19 1   
    18    6    8 1   
    19    6   20 1   
    20    7   21 1   
    21    8   22 1   
@<TRIPOS>SUBSTRUCTURE
     1 MOL         1 TEMP              0 ****  ****    0 ROOT
