@<TRIPOS>MOLECULE
MOL
   41    41     1     0     0
SMALL
No Charge or Current Charge


@<TRIPOS>ATOM
      1 C1          -2.1150     2.3370     0.2370 C.2        1 MOL       0.000000
      2 C2          -1.3450    -1.1430    -0.5740 C.2        1 MOL       0.000000
      3 C3           4.1630     0.6540    -0.3990 C.3        1 MOL       0.000000
      4 C4           2.9980     0.7190    -1.3960 C.3        1 MOL       0.000000
      5 C5           3.9080    -0.4170     0.6710 C.3        1 MOL       0.000000
      6 C6           1.6480     0.9380    -0.6940 C.3        1 MOL       0.000000
      7 C7           2.5630    -0.1950     1.3770 C.3        1 MOL       0.000000
      8 C8           1.3770    -0.1250     0.3900 C.3        1 MOL       0.000000
      9 C9          -2.4540     3.4810    -0.7080 C.3        1 MOL       0.000000
     10 C10         -1.4780    -3.5320    -1.0140 C.3        1 MOL       0.000000
     11 C11         -1.7580    -2.7680     1.3030 C.3        1 MOL       0.000000
     12 C12          0.0720     0.0940     1.1810 C.3        1 MOL       0.000000
     13 C13         -1.2820     0.0330     0.4170 C.3        1 MOL       0.000000
     14 N1          -1.5680     1.2360    -0.3470 N.am       1 MOL       0.000000
     15 N2          -1.5200    -2.4080    -0.0860 N.am       1 MOL       0.000000
     16 O1          -2.3140     2.4120     1.4480 O.2        1 MOL       0.000000
     17 O2          -1.2010    -0.9230    -1.7800 O.2        1 MOL       0.000000
     18 H1           5.1060     0.4530    -0.9230 H          1 MOL       0.000000
     19 H2           4.2790     1.6330     0.0900 H          1 MOL       0.000000
     20 H3           3.1690     1.5180    -2.1300 H          1 MOL       0.000000
     21 H4           2.9580    -0.2210    -1.9660 H          1 MOL       0.000000
     22 H5           3.9080    -1.4100     0.1950 H          1 MOL       0.000000
     23 H6           4.7220    -0.4250     1.4080 H          1 MOL       0.000000
     24 H7           1.6330     1.9350    -0.2280 H          1 MOL       0.000000
     25 H8           0.8470     0.9240    -1.4380 H          1 MOL       0.000000
     26 H9           2.3880    -0.9920     2.1130 H          1 MOL       0.000000
     27 H10          2.6050     0.7470     1.9460 H          1 MOL       0.000000
     28 H11          1.3150    -1.1020    -0.1160 H          1 MOL       0.000000
     29 H12         -3.5140     3.7270    -0.5980 H          1 MOL       0.000000
     30 H13         -1.8820     4.3660    -0.4100 H          1 MOL       0.000000
     31 H14         -2.2430     3.2600    -1.7580 H          1 MOL       0.000000
     32 H15         -0.6990    -4.2440    -0.7110 H          1 MOL       0.000000
     33 H16         -1.2610    -3.1530    -2.0110 H          1 MOL       0.000000
     34 H17         -2.4420    -4.0570    -1.0230 H          1 MOL       0.000000
     35 H18         -2.6420    -3.4160     1.3670 H          1 MOL       0.000000
     36 H19         -1.9390    -1.8900     1.9200 H          1 MOL       0.000000
     37 H20         -0.9040    -3.3180     1.7200 H          1 MOL       0.000000
     38 H21          0.0350    -0.6560     1.9830 H          1 MOL       0.000000
     39 H22          0.0920     1.0690     1.6830 H          1 MOL       0.000000
     40 H23         -2.0680    -0.0410     1.1750 H          1 MOL       0.000000
     41 H24         -1.5070     1.1340    -1.3530 H          1 MOL       0.000000
@<TRIPOS>BOND
     1     1     9 1   
     2     1    14 am  
     3     1    16 2   
     4     2    13 1   
     5     2    15 am  
     6     2    17 2   
     7     3     4 1   
     8     3     5 1   
     9     3    18 1   
    10     3    19 1   
    11     4     6 1   
    12     4    20 1   
    13     4    21 1   
    14     5     7 1   
    15     5    22 1   
    16     5    23 1   
    17     6     8 1   
    18     6    24 1   
    19     6    25 1   
    20     7     8 1   
    21     7    26 1   
    22     7    27 1   
    23     8    12 1   
    24     8    28 1   
    25     9    29 1   
    26     9    30 1   
    27     9    31 1   
    28    10    15 1   
    29    10    32 1   
    30    10    33 1   
    31    10    34 1   
    32    11    15 1   
    33    11    35 1   
    34    11    36 1   
    35    11    37 1   
    36    12    13 1   
    37    12    38 1   
    38    12    39 1   
    39    13    14 1   
    40    13    40 1   
    41    14    41 1   
@<TRIPOS>SUBSTRUCTURE
     1 MOL         1 TEMP              0 ****  ****    0 ROOT
