@<TRIPOS>MOLECULE
MOL
   41    41     1     0     0
SMALL
No Charge or Current Charge


@<TRIPOS>ATOM
 1  C1  -2.115000  2.337000  0.237000  C.2  1  MOL  0.510929 
 2  C2  -1.345000  -1.143000  -0.574000  C.2  1  MOL  0.636107 
 3  C3  4.163000  0.654000  -0.399000  C.3  1  MOL  0.002280 
 4  C4  2.998000  0.719000  -1.396000  C.3  1  MOL  -0.008889 
 5  C5  3.908000  -0.417000  0.671000  C.3  1  MOL  -0.008889 
 6  C6  1.648000  0.938000  -0.694000  C.3  1  MOL  0.029401 
 7  C7  2.563000  -0.195000  1.377000  C.3  1  MOL  0.029401 
 8  C8  1.377000  -0.125000  0.390000  C.3  1  MOL  0.153705 
 9  C9  -2.454000  3.481000  -0.708000  C.3  1  MOL  -0.313908 
 10  C10  -1.478000  -3.532000  -1.014000  C.3  1  MOL  -0.071473 
 11  C11  -1.758000  -2.768000  1.303000  C.3  1  MOL  -0.089282 
 12  C12  0.072000  0.094000  1.181000  C.3  1  MOL  -0.064897 
 13  C13  -1.282000  0.033000  0.417000  C.3  1  MOL  -0.148650 
 14  N1  -1.568000  1.236000  -0.347000  N.am  1  MOL  -0.353167 
 15  N2  -1.520000  -2.408000  -0.086000  N.am  1  MOL  -0.344286 
 16  O1  -2.314000  2.412000  1.448000  O.2  1  MOL  -0.514977 
 17  O2  -1.201000  -0.923000  -1.780000  O.2  1  MOL  -0.560519 
 18  H1  5.106000  0.453000  -0.923000  H  1  MOL  0.000696 
 19  H2  4.279000  1.633000  0.090000  H  1  MOL  0.000696 
 20  H3  3.169000  1.518000  -2.130000  H  1  MOL  -0.008541 
 21  H4  2.958000  -0.221000  -1.966000  H  1  MOL  -0.008541 
 22  H5  3.908000  -1.410000  0.195000  H  1  MOL  -0.008541 
 23  H6  4.722000  -0.425000  1.408000  H  1  MOL  -0.008541 
 24  H7  1.633000  1.935000  -0.228000  H  1  MOL  -0.011309 
 25  H8  0.847000  0.924000  -1.438000  H  1  MOL  -0.011309 
 26  H9  2.388000  -0.992000  2.113000  H  1  MOL  -0.011309 
 27  H10  2.605000  0.747000  1.946000  H  1  MOL  -0.011309 
 28  H11  1.315000  -1.102000  -0.116000  H  1  MOL  -0.041214 
 29  H12  -3.514000  3.727000  -0.598000  H  1  MOL  0.111818 
 30  H13  -1.882000  4.366000  -0.410000  H  1  MOL  0.116842 
 31  H14  -2.243000  3.260000  -1.758000  H  1  MOL  0.089295 
 32  H15  -0.699000  -4.244000  -0.711000  H  1  MOL  0.087465 
 33  H16  -1.261000  -3.153000  -2.011000  H  1  MOL  0.084069 
 34  H17  -2.442000  -4.057000  -1.023000  H  1  MOL  0.088028 
 35  H18  -2.642000  -3.416000  1.367000  H  1  MOL  0.094118 
 36  H19  -1.939000  -1.890000  1.920000  H  1  MOL  0.067267 
 37  H20  -0.904000  -3.318000  1.720000  H  1  MOL  0.084095 
 38  H21  0.035000  -0.656000  1.983000  H  1  MOL  0.033184 
 39  H22  0.092000  1.069000  1.683000  H  1  MOL  0.033184 
 40  H23  -2.068000  -0.041000  1.175000  H  1  MOL  0.090019 
 41  H24  -1.507000  1.134000  -1.353000  H  1  MOL  0.256949 
@<TRIPOS>BOND
     1     1     9 1   
     2     1    14 am  
     3     1    16 2   
     4     2    13 1   
     5     2    15 am  
     6     2    17 2   
     7     3     4 1   
     8     3     5 1   
     9     3    18 1   
    10     3    19 1   
    11     4     6 1   
    12     4    20 1   
    13     4    21 1   
    14     5     7 1   
    15     5    22 1   
    16     5    23 1   
    17     6     8 1   
    18     6    24 1   
    19     6    25 1   
    20     7     8 1   
    21     7    26 1   
    22     7    27 1   
    23     8    12 1   
    24     8    28 1   
    25     9    29 1   
    26     9    30 1   
    27     9    31 1   
    28    10    15 1   
    29    10    32 1   
    30    10    33 1   
    31    10    34 1   
    32    11    15 1   
    33    11    35 1   
    34    11    36 1   
    35    11    37 1   
    36    12    13 1   
    37    12    38 1   
    38    12    39 1   
    39    13    14 1   
    40    13    40 1   
    41    14    41 1   
@<TRIPOS>SUBSTRUCTURE
     1 MOL         1 TEMP              0 ****  ****    0 ROOT
