@<TRIPOS>MOLECULE
MOL
   21    21     1     0     0
SMALL
No Charge or Current Charge


@<TRIPOS>ATOM
 1  C1  2.020000  1.205000  0.178000  C.ar  1  MOL  -0.441083 
 2  C2  1.023000  -0.917000  -0.273000  C.ar  1  MOL  -0.441083 
 3  C3  3.252000  0.552000  0.243000  C.ar  1  MOL  0.351729 
 4  C4  2.298000  -1.472000  -0.187000  C.ar  1  MOL  0.351729 
 5  C5  0.867000  0.461000  -0.088000  C.ar  1  MOL  0.319876 
 6  C6  -2.675000  -0.030000  -0.084000  C.2  1  MOL  0.419930 
 7  C7  -3.674000  -0.718000  0.834000  C.3  1  MOL  -0.016420 
 8  C8  -0.489000  1.129000  -0.197000  C.3  1  MOL  0.034091 
 9  N1  3.408000  -0.765000  0.068000  N.ar  1  MOL  -0.603175 
 10  N2  -1.537000  0.430000  0.528000  N.am  1  MOL  -0.425469 
 11  O1  -2.883000  0.107000  -1.283000  O.2  1  MOL  -0.497640 
 12  H1  1.963000  2.279000  0.335000  H  1  MOL  0.167644 
 13  H2  0.163000  -1.548000  -0.482000  H  1  MOL  0.167644 
 14  H3  4.159000  1.118000  0.452000  H  1  MOL  0.060832 
 15  H4  2.439000  -2.543000  -0.330000  H  1  MOL  0.060832 
 16  H5  -4.601000  -0.136000  0.846000  H  1  MOL  0.031380 
 17  H6  -3.914000  -1.701000  0.418000  H  1  MOL  0.031380 
 18  H7  -3.321000  -0.842000  1.862000  H  1  MOL  0.031380 
 19  H8  -0.416000  2.170000  0.147000  H  1  MOL  0.068009 
 20  H9  -0.825000  1.152000  -1.239000  H  1  MOL  0.068009 
 21  H10  -1.417000  0.283000  1.520000  H  1  MOL  0.260405 
@<TRIPOS>BOND
     1     1     3 ar  
     2     1     5 ar  
     3     1    12 1   
     4     2     4 ar  
     5     2     5 ar  
     6     2    13 1   
     7     3     9 ar  
     8     3    14 1   
     9     4     9 ar  
    10     4    15 1   
    11     5     8 1   
    12     6     7 1   
    13     6    10 am  
    14     6    11 2   
    15     7    16 1   
    16     7    17 1   
    17     7    18 1   
    18     8    10 1   
    19     8    19 1   
    20     8    20 1   
    21    10    21 1   
@<TRIPOS>SUBSTRUCTURE
     1 MOL         1 TEMP              0 ****  ****    0 ROOT
