@<TRIPOS>MOLECULE
MOL
   21    21     1     0     0
SMALL
No Charge or Current Charge


@<TRIPOS>ATOM
      1 C1           2.0200     1.2050     0.1780 C.ar       1 MOL       0.000000
      2 C2           1.0230    -0.9170    -0.2730 C.ar       1 MOL       0.000000
      3 C3           3.2520     0.5520     0.2430 C.ar       1 MOL       0.000000
      4 C4           2.2980    -1.4720    -0.1870 C.ar       1 MOL       0.000000
      5 C5           0.8670     0.4610    -0.0880 C.ar       1 MOL       0.000000
      6 C6          -2.6750    -0.0300    -0.0840 C.2        1 MOL       0.000000
      7 C7          -3.6740    -0.7180     0.8340 C.3        1 MOL       0.000000
      8 C8          -0.4890     1.1290    -0.1970 C.3        1 MOL       0.000000
      9 N1           3.4080    -0.7650     0.0680 N.ar       1 MOL       0.000000
     10 N2          -1.5370     0.4300     0.5280 N.am       1 MOL       0.000000
     11 O1          -2.8830     0.1070    -1.2830 O.2        1 MOL       0.000000
     12 H1           1.9630     2.2790     0.3350 H          1 MOL       0.000000
     13 H2           0.1630    -1.5480    -0.4820 H          1 MOL       0.000000
     14 H3           4.1590     1.1180     0.4520 H          1 MOL       0.000000
     15 H4           2.4390    -2.5430    -0.3300 H          1 MOL       0.000000
     16 H5          -4.6010    -0.1360     0.8460 H          1 MOL       0.000000
     17 H6          -3.9140    -1.7010     0.4180 H          1 MOL       0.000000
     18 H7          -3.3210    -0.8420     1.8620 H          1 MOL       0.000000
     19 H8          -0.4160     2.1700     0.1470 H          1 MOL       0.000000
     20 H9          -0.8250     1.1520    -1.2390 H          1 MOL       0.000000
     21 H10         -1.4170     0.2830     1.5200 H          1 MOL       0.000000
@<TRIPOS>BOND
     1     1     3 ar  
     2     1     5 ar  
     3     1    12 1   
     4     2     4 ar  
     5     2     5 ar  
     6     2    13 1   
     7     3     9 ar  
     8     3    14 1   
     9     4     9 ar  
    10     4    15 1   
    11     5     8 1   
    12     6     7 1   
    13     6    10 am  
    14     6    11 2   
    15     7    16 1   
    16     7    17 1   
    17     7    18 1   
    18     8    10 1   
    19     8    19 1   
    20     8    20 1   
    21    10    21 1   
@<TRIPOS>SUBSTRUCTURE
     1 MOL         1 TEMP              0 ****  ****    0 ROOT
