@<TRIPOS>MOLECULE
*****
 24 23 0 0 0
SMALL
GASTEIGER

@<TRIPOS>ATOM
      1 C           2.9836   -2.9620    1.2530 C.3     1  UNL1        0.0055
      2 N           2.5202   -1.8632    2.1009 N.3     1  UNL1        0.1961
      3 S           2.9544   -0.3022    1.6844 S.O2    1  UNL1        0.0463
      4 O           2.4741   -0.0755    0.3377 O.2     1  UNL1        0.1567
      5 O           2.5353    0.5492    2.7794 O.2     1  UNL1        0.1567
      6 C           4.8249   -0.3042    1.6691 C.3     1  UNL1        0.1578
      7 H           5.1369   -1.0482    0.9303 H       1  UNL1        0.0731
      8 C           5.2580    1.0758    1.1542 C.3     1  UNL1        0.0266
      9 N           5.5520   -0.5283    2.9951 N.3     1  UNL1        0.1696
     10 S           5.3476   -2.0435    3.7013 S.O2    1  UNL1        0.0282
     11 C           6.3908   -1.9541    5.1290 C.3     1  UNL1        0.0705
     12 O           3.9876   -2.1117    4.1779 O.2     1  UNL1        0.1584
     13 O           5.8832   -3.0322    2.7919 O.2     1  UNL1        0.1584
     14 H           2.6966   -3.9103    1.7156 H       1  UNL1        0.0405
     15 H           4.0695   -2.9667    1.1671 H       1  UNL1        0.0405
     16 H           2.5511   -2.8985    0.2548 H       1  UNL1        0.0405
     17 H           2.6683   -2.0197    3.1116 H       1  UNL1        0.1473
     18 H           4.7921    1.3076    0.1900 H       1  UNL1        0.0262
     19 H           6.3436    1.1221    1.0238 H       1  UNL1        0.0262
     20 H           4.9698    1.8666    1.8565 H       1  UNL1        0.0262
     21 H           5.2697    0.2094    3.6471 H       1  UNL1        0.1498
     22 H           6.0620   -1.1094    5.7370 H       1  UNL1        0.0479
     23 H           7.4288   -1.8525    4.8170 H       1  UNL1        0.0479
     24 H           6.2498   -2.8821    5.6900 H       1  UNL1        0.0479
@<TRIPOS>BOND
     1     1     2    1
     2     2     3    1
     3     3     4    2
     4     3     5    2
     5     3     6    1
     6     6     7    1
     7     6     8    1
     8     6     9    1
     9     9    10    1
    10    10    11    1
    11    10    12    2
    12    10    13    2
    13     1    14    1
    14     1    15    1
    15     1    16    1
    16     2    17    1
    17     8    18    1
    18     8    19    1
    19     8    20    1
    20     9    21    1
    21    11    22    1
    22    11    23    1
    23    11    24    1
