@<TRIPOS>MOLECULE
MOL
   13    13     1     0     0
SMALL
No Charge or Current Charge


@<TRIPOS>ATOM
      1 N1          -2.8380    -1.2930     0.1140 N.am       1 MOL       0.000000
      2 C1          -2.4290     0.0140    -0.0170 C.2        1 MOL       0.000000
      3 O1          -3.2180     0.9370    -0.1700 O.2        1 MOL       0.000000
      4 C2          -0.9630     0.2580    -0.0000 C.2        1 MOL       0.000000
      5 C3          -0.3890     1.5010     0.0830 C.2        1 MOL       0.000000
      6 C4           1.0330     1.4780     0.0950 C.2        1 MOL       0.000000
      7 C5           1.5230     0.2010     0.0160 C.2        1 MOL       0.000000
      8 Cl1          3.1870    -0.2700    -0.0100 Cl         1 MOL       0.000000
      9 S1           0.2620    -0.9950    -0.0880 S.3        1 MOL       0.000000
     10 H1          -3.8360    -1.4240     0.2190 H          1 MOL       0.000000
     11 H2          -2.2480    -1.9770     0.5680 H          1 MOL       0.000000
     12 H3          -0.9920     2.3990     0.1360 H          1 MOL       0.000000
     13 H4           1.6660     2.3550     0.1570 H          1 MOL       0.000000
@<TRIPOS>BOND
     1     1     2 am  
     2     1    10 1   
     3     1    11 1   
     4     2     3 2   
     5     2     4 1   
     6     4     5 2   
     7     4     9 1   
     8     5     6 1   
     9     5    12 1   
    10     6     7 2   
    11     6    13 1   
    12     7     8 1   
    13     7     9 1   
@<TRIPOS>SUBSTRUCTURE
     1 MOL         1 TEMP              0 ****  ****    0 ROOT
