@<TRIPOS>MOLECULE
MOL
   13    13     1     0     0
SMALL
No Charge or Current Charge


@<TRIPOS>ATOM
 1  N1  -2.838000  -1.293000  0.114000  N.am  1  MOL  -0.812454 
 2  C1  -2.429000  0.014000  -0.017000  C.2  1  MOL  0.684202 
 3  O1  -3.218000  0.937000  -0.170000  O.2  1  MOL  -0.567719 
 4  C2  -0.963000  0.258000  -0.000000  C.2  1  MOL  -0.116920 
 5  C3  -0.389000  1.501000  0.083000  C.2  1  MOL  -0.110856 
 6  C4  1.033000  1.478000  0.095000  C.2  1  MOL  -0.084378 
 7  C5  1.523000  0.201000  0.016000  C.2  1  MOL  -0.061298 
 8  Cl1  3.187000  -0.270000  -0.010000  Cl  1  MOL  -0.020316 
 9  S1  0.262000  -0.995000  -0.088000  S.3  1  MOL  0.025155 
 10  H1  -3.836000  -1.424000  0.219000  H  1  MOL  0.370248 
 11  H2  -2.248000  -1.977000  0.568000  H  1  MOL  0.370248 
 12  H3  -0.992000  2.399000  0.136000  H  1  MOL  0.172614 
 13  H4  1.666000  2.355000  0.157000  H  1  MOL  0.151473 
@<TRIPOS>BOND
     1     1     2 am  
     2     1    10 1   
     3     1    11 1   
     4     2     3 2   
     5     2     4 1   
     6     4     5 2   
     7     4     9 1   
     8     5     6 1   
     9     5    12 1   
    10     6     7 2   
    11     6    13 1   
    12     7     8 1   
    13     7     9 1   
@<TRIPOS>SUBSTRUCTURE
     1 MOL         1 TEMP              0 ****  ****    0 ROOT
