@<TRIPOS>MOLECULE
MOL
   25    25     1     0     0
SMALL
No Charge or Current Charge


@<TRIPOS>ATOM
 1  C1  2.598000  1.395000  0.520000  C.ar  1  MOL  -0.202659 
 2  C2  1.335000  1.820000  0.095000  C.ar  1  MOL  0.029145 
 3  C3  2.910000  0.051000  0.472000  C.ar  1  MOL  -0.008517 
 4  C4  0.778000  -0.450000  -0.404000  C.ar  1  MOL  0.068939 
 5  C5  0.401000  0.893000  -0.374000  C.ar  1  MOL  -0.013883 
 6  C6  -2.570000  -0.345000  0.074000  C.2  1  MOL  0.419930 
 7  C7  -3.824000  -0.557000  0.892000  C.3  1  MOL  -0.016420 
 8  C8  2.372000  -2.281000  -0.055000  C.3  1  MOL  -0.202207 
 9  C9  -0.988000  1.292000  -0.859000  C.3  1  MOL  -0.364883 
 10  N1  2.000000  -0.845000  0.013000  N.pl3  1  MOL  0.061641 
 11  N2  -2.056000  0.928000  0.063000  N.am  1  MOL  -0.166421 
 12  O1  -2.029000  -1.247000  -0.563000  O.2  1  MOL  -0.497640 
 13  H1  3.336000  2.099000  0.887000  H  1  MOL  0.200965 
 14  H2  1.084000  2.877000  0.128000  H  1  MOL  0.183873 
 15  H3  3.867000  -0.349000  0.785000  H  1  MOL  0.199530 
 16  H4  0.079000  -1.212000  -0.737000  H  1  MOL  0.166722 
 17  H5  -4.671000  -0.685000  0.209000  H  1  MOL  0.031380 
 18  H6  -3.724000  -1.483000  1.463000  H  1  MOL  0.031380 
 19  H7  -4.046000  0.269000  1.574000  H  1  MOL  0.031380 
 20  H8  2.844000  -2.572000  0.885000  H  1  MOL  0.141962 
 21  H9  1.471000  -2.873000  -0.210000  H  1  MOL  0.141962 
 22  H10  3.065000  -2.434000  -0.885000  H  1  MOL  0.141962 
 23  H11  -1.020000  2.374000  -1.010000  H  1  MOL  0.198759 
 24  H12  -1.179000  0.811000  -1.825000  H  1  MOL  0.198759 
 25  H13  -2.543000  1.666000  0.551000  H  1  MOL  0.224339 
@<TRIPOS>BOND
     1    1    2 ar  
     2    1    3 ar  
     3    1   13 1   
     4    2    5 ar  
     5    2   14 1   
     6    3   10 1   
     7    3   15 1   
     8    4    5 ar  
     9    4   10 2   
    10    4   16 1   
    11    5    9 1   
    12    6    7 1   
    13    6   11 am  
    14    6   12 2   
    15    7   17 1   
    16    7   18 1   
    17    7   19 1   
    18    8   10 1   
    19    8   20 1   
    20    8   21 1   
    21    8   22 1   
    22    9   11 1   
    23    9   23 1   
    24    9   24 1   
    25   11   25 1   
@<TRIPOS>SUBSTRUCTURE
     1 MOL         1 TEMP              0 ****  ****    0 ROOT
