@<TRIPOS>MOLECULE
MOL
   25    25     1     0     0
SMALL
No Charge or Current Charge


@<TRIPOS>ATOM
      1 C1           2.5980     1.3950     0.5200 C.ar       1 MOL       0.000000
      2 C2           1.3350     1.8200     0.0950 C.ar       1 MOL       0.000000
      3 C3           2.9100     0.0510     0.4720 C.ar       1 MOL       0.000000
      4 C4           0.7780    -0.4500    -0.4040 C.ar       1 MOL       0.000000
      5 C5           0.4010     0.8930    -0.3740 C.ar       1 MOL       0.000000
      6 C6          -2.5700    -0.3450     0.0740 C.2        1 MOL       0.000000
      7 C7          -3.8240    -0.5570     0.8920 C.3        1 MOL       0.000000
      8 C8           2.3720    -2.2810    -0.0550 C.3        1 MOL       0.000000
      9 C9          -0.9880     1.2920    -0.8590 C.3        1 MOL       0.000000
     10 N1           2.0000    -0.8450     0.0130 N.pl3      1 MOL       0.000000
     11 N2          -2.0560     0.9280     0.0630 N.am       1 MOL       0.000000
     12 O1          -2.0290    -1.2470    -0.5630 O.2        1 MOL       0.000000
     13 H1           3.3360     2.0990     0.8870 H          1 MOL       0.000000
     14 H2           1.0840     2.8770     0.1280 H          1 MOL       0.000000
     15 H3           3.8670    -0.3490     0.7850 H          1 MOL       0.000000
     16 H4           0.0790    -1.2120    -0.7370 H          1 MOL       0.000000
     17 H5          -4.6710    -0.6850     0.2090 H          1 MOL       0.000000
     18 H6          -3.7240    -1.4830     1.4630 H          1 MOL       0.000000
     19 H7          -4.0460     0.2690     1.5740 H          1 MOL       0.000000
     20 H8           2.8440    -2.5720     0.8850 H          1 MOL       0.000000
     21 H9           1.4710    -2.8730    -0.2100 H          1 MOL       0.000000
     22 H10          3.0650    -2.4340    -0.8850 H          1 MOL       0.000000
     23 H11         -1.0200     2.3740    -1.0100 H          1 MOL       0.000000
     24 H12         -1.1790     0.8110    -1.8250 H          1 MOL       0.000000
     25 H13         -2.5430     1.6660     0.5510 H          1 MOL       0.000000
@<TRIPOS>BOND
     1     1     2 ar  
     2     1     3 ar  
     3     1    13 1   
     4     2     5 ar  
     5     2    14 1   
     6     3    10 1   
     7     3    15 1   
     8     4     5 ar  
     9     4    10 2   
    10     4    16 1   
    11     5     9 1   
    12     6     7 1   
    13     6    11 am  
    14     6    12 2   
    15     7    17 1   
    16     7    18 1   
    17     7    19 1   
    18     8    10 1   
    19     8    20 1   
    20     8    21 1   
    21     8    22 1   
    22     9    11 1   
    23     9    23 1   
    24     9    24 1   
    25    11    25 1   
@<TRIPOS>SUBSTRUCTURE
     1 MOL         1 TEMP              0 ****  ****    0 ROOT
