@<TRIPOS>MOLECULE
MOL
   25    25     1     0     0
SMALL
No Charge or Current Charge


@<TRIPOS>ATOM
      1 C1           2.2740     0.8220     0.6510 C.ar       1 MOL       0.000000
      2 C2           2.6630    -0.4990     0.6220 C.ar       1 MOL       0.000000
      3 C3           0.7390    -1.0770    -0.6030 C.ar       1 MOL       0.000000
      4 C4           0.2790     0.2350    -0.6150 C.ar       1 MOL       0.000000
      5 C5           1.0690     1.1950     0.0390 C.ar       1 MOL       0.000000
      6 C6          -2.5860    -0.6950     0.1810 C.2        1 MOL       0.000000
      7 C7          -3.8240    -0.6610     1.0490 C.3        1 MOL       0.000000
      8 C8           2.3260    -2.8500    -0.0360 C.3        1 MOL       0.000000
      9 C9          -1.0580     0.5360    -1.2770 C.3        1 MOL       0.000000
     10 N1           1.8950    -1.4310     0.0030 N.pl3      1 MOL       0.000000
     11 N2          -2.1550     0.5060    -0.3240 N.am       1 MOL       0.000000
     12 O1          -1.9810    -1.7330    -0.0850 O.2        1 MOL       0.000000
     13 Cl1          0.5780     2.8480     0.1140 Cl         1 MOL       0.000000
     14 H1           2.8950     1.5560     1.1510 H          1 MOL       0.000000
     15 H2           3.5770    -0.8490     1.0870 H          1 MOL       0.000000
     16 H3           0.1550    -1.8710    -1.0480 H          1 MOL       0.000000
     17 H4          -4.6480    -1.1340     0.5050 H          1 MOL       0.000000
     18 H5          -3.6440    -1.2560     1.9480 H          1 MOL       0.000000
     19 H6          -4.1270     0.3490     1.3380 H          1 MOL       0.000000
     20 H7           1.4490    -3.4880     0.0800 H          1 MOL       0.000000
     21 H8           2.8160    -3.0540    -0.9910 H          1 MOL       0.000000
     22 H9           3.0190    -3.0340     0.7840 H          1 MOL       0.000000
     23 H10         -1.0300     1.5210    -1.7440 H          1 MOL       0.000000
     24 H11         -1.2350    -0.2080    -2.0610 H          1 MOL       0.000000
     25 H12         -2.6730     1.3540    -0.1430 H          1 MOL       0.000000
@<TRIPOS>BOND
     1     1     2 ar  
     2     1     5 ar  
     3     1    14 1   
     4     2    10 2   
     5     2    15 1   
     6     3     4 ar  
     7     3    10 1   
     8     3    16 1   
     9     4     5 ar  
    10     4     9 1   
    11     5    13 1   
    12     6     7 1   
    13     6    11 am  
    14     6    12 2   
    15     7    17 1   
    16     7    18 1   
    17     7    19 1   
    18     8    10 1   
    19     8    20 1   
    20     8    21 1   
    21     8    22 1   
    22     9    11 1   
    23     9    23 1   
    24     9    24 1   
    25    11    25 1   
@<TRIPOS>SUBSTRUCTURE
     1 MOL         1 TEMP              0 ****  ****    0 ROOT
