@<TRIPOS>MOLECULE
MOL
   25    25     1     0     0
SMALL
No Charge or Current Charge


@<TRIPOS>ATOM
 1  C1  2.274000  0.822000  0.651000  C.ar  1  MOL  -0.060727 
 2  C2  2.663000  -0.499000  0.622000  C.ar  1  MOL  -0.027509 
 3  C3  0.739000  -1.077000  -0.603000  C.ar  1  MOL  0.029829 
 4  C4  0.279000  0.235000  -0.615000  C.ar  1  MOL  0.015380 
 5  C5  1.069000  1.195000  0.039000  C.ar  1  MOL  -0.070672 
 6  C6  -2.586000  -0.695000  0.181000  C.2  1  MOL  0.510929 
 7  C7  -3.824000  -0.661000  1.049000  C.3  1  MOL  -0.313908 
 8  C8  2.326000  -2.850000  -0.036000  C.3  1  MOL  -0.205371 
 9  C9  -1.058000  0.536000  -1.277000  C.3  1  MOL  0.277234 
 10  N1  1.895000  -1.431000  0.003000  N.pl3  1  MOL  0.068870 
 11  N2  -2.155000  0.506000  -0.324000  N.am  1  MOL  -0.353167 
 12  O1  -1.981000  -1.733000  -0.085000  O.2  1  MOL  -0.514977 
 13  Cl1  0.578000  2.848000  0.114000  Cl  1  MOL  0.056859 
 14  H1  2.895000  1.556000  1.151000  H  1  MOL  0.172612 
 15  H2  3.577000  -0.849000  1.087000  H  1  MOL  0.202561 
 16  H3  0.155000  -1.871000  -1.048000  H  1  MOL  0.180370 
 17  H4  -4.648000  -1.134000  0.505000  H  1  MOL  0.111818 
 18  H5  -3.644000  -1.256000  1.948000  H  1  MOL  0.116842 
 19  H6  -4.127000  0.349000  1.338000  H  1  MOL  0.089295 
 20  H7  1.449000  -3.488000  0.080000  H  1  MOL  0.144931 
 21  H8  2.816000  -3.054000  -0.991000  H  1  MOL  0.144931 
 22  H9  3.019000  -3.034000  0.784000  H  1  MOL  0.144931 
 23  H10  -1.030000  1.521000  -1.744000  H  1  MOL  0.010995 
 24  H11  -1.235000  -0.208000  -2.061000  H  1  MOL  0.010995 
 25  H12  -2.673000  1.354000  -0.143000  H  1  MOL  0.256949 
@<TRIPOS>BOND
     1     1     2 ar  
     2     1     5 ar  
     3     1    14 1   
     4     2    10 2   
     5     2    15 1   
     6     3     4 ar  
     7     3    10 1   
     8     3    16 1   
     9     4     5 ar  
    10     4     9 1   
    11     5    13 1   
    12     6     7 1   
    13     6    11 am  
    14     6    12 2   
    15     7    17 1   
    16     7    18 1   
    17     7    19 1   
    18     8    10 1   
    19     8    20 1   
    20     8    21 1   
    21     8    22 1   
    22     9    11 1   
    23     9    23 1   
    24     9    24 1   
    25    11    25 1   
@<TRIPOS>SUBSTRUCTURE
     1 MOL         1 TEMP              0 ****  ****    0 ROOT
