@<TRIPOS>MOLECULE
MOL
   25    25     1     0     0
SMALL
No Charge or Current Charge


@<TRIPOS>ATOM
 1  C1  1.551000  1.853000  0.108000  C.ar  1  MOL  -0.254156 
 2  C2  2.728000  1.137000  0.335000  C.ar  1  MOL  -0.132623 
 3  C3  0.395000  1.197000  -0.307000  C.ar  1  MOL  -0.075720 
 4  C4  1.596000  -0.896000  -0.267000  C.ar  1  MOL  -0.176507 
 5  C5  2.768000  -0.250000  0.153000  C.ar  1  MOL  0.053661 
 6  C6  0.411000  -0.193000  -0.497000  C.ar  1  MOL  -0.004271 
 7  C7  -2.937000  -0.052000  0.074000  C.2  1  MOL  0.419930 
 8  C8  4.030000  -1.037000  0.423000  C.3  1  MOL  -0.184678 
 9  C9  -3.885000  -0.154000  1.261000  C.3  1  MOL  -0.016420 
 10  C10  -0.848000  -0.915000  -0.942000  C.3  1  MOL  0.094450 
 11  N1  -1.897000  -0.942000  0.075000  N.am  1  MOL  -0.434558 
 12  O1  -3.110000  0.768000  -0.821000  O.2  1  MOL  -0.497640 
 13  H1  1.541000  2.932000  0.246000  H  1  MOL  0.166771 
 14  H2  3.627000  1.661000  0.653000  H  1  MOL  0.134615 
 15  H3  -0.521000  1.750000  -0.496000  H  1  MOL  0.122323 
 16  H4  1.613000  -1.974000  -0.423000  H  1  MOL  0.137984 
 17  H5  4.064000  -1.394000  1.462000  H  1  MOL  0.065691 
 18  H6  4.101000  -1.917000  -0.224000  H  1  MOL  0.065691 
 19  H7  4.925000  -0.426000  0.263000  H  1  MOL  0.065691 
 20  H8  -3.839000  0.780000  1.831000  H  1  MOL  0.031380 
 21  H9  -4.906000  -0.257000  0.885000  H  1  MOL  0.031380 
 22  H10  -3.666000  -0.991000  1.932000  H  1  MOL  0.031380 
 23  H11  -1.291000  -0.419000  -1.809000  H  1  MOL  0.048231 
 24  H12  -0.610000  -1.947000  -1.225000  H  1  MOL  0.048231 
 25  H13  -1.731000  -1.489000  0.908000  H  1  MOL  0.259166 
@<TRIPOS>BOND
     1    1    2 ar  
     2    1    3 ar  
     3    1   13 1   
     4    2    5 ar  
     5    2   14 1   
     6    3    6 ar  
     7    3   15 1   
     8    4    5 ar  
     9    4    6 ar  
    10    4   16 1   
    11    5    8 1   
    12    6   10 1   
    13    7    9 1   
    14    7   11 am  
    15    7   12 2   
    16    8   17 1   
    17    8   18 1   
    18    8   19 1   
    19    9   20 1   
    20    9   21 1   
    21    9   22 1   
    22   10   11 1   
    23   10   23 1   
    24   10   24 1   
    25   11   25 1   
@<TRIPOS>SUBSTRUCTURE
     1 MOL         1 TEMP              0 ****  ****    0 ROOT
