@<TRIPOS>MOLECULE
MOL
   25    25     1     0     0
SMALL
No Charge or Current Charge


@<TRIPOS>ATOM
      1 C1           1.5510     1.8530     0.1080 C.ar       1 MOL       0.000000
      2 C2           2.7280     1.1370     0.3350 C.ar       1 MOL       0.000000
      3 C3           0.3950     1.1970    -0.3070 C.ar       1 MOL       0.000000
      4 C4           1.5960    -0.8960    -0.2670 C.ar       1 MOL       0.000000
      5 C5           2.7680    -0.2500     0.1530 C.ar       1 MOL       0.000000
      6 C6           0.4110    -0.1930    -0.4970 C.ar       1 MOL       0.000000
      7 C7          -2.9370    -0.0520     0.0740 C.2        1 MOL       0.000000
      8 C8           4.0300    -1.0370     0.4230 C.3        1 MOL       0.000000
      9 C9          -3.8850    -0.1540     1.2610 C.3        1 MOL       0.000000
     10 C10         -0.8480    -0.9150    -0.9420 C.3        1 MOL       0.000000
     11 N1          -1.8970    -0.9420     0.0750 N.am       1 MOL       0.000000
     12 O1          -3.1100     0.7680    -0.8210 O.2        1 MOL       0.000000
     13 H1           1.5410     2.9320     0.2460 H          1 MOL       0.000000
     14 H2           3.6270     1.6610     0.6530 H          1 MOL       0.000000
     15 H3          -0.5210     1.7500    -0.4960 H          1 MOL       0.000000
     16 H4           1.6130    -1.9740    -0.4230 H          1 MOL       0.000000
     17 H5           4.0640    -1.3940     1.4620 H          1 MOL       0.000000
     18 H6           4.1010    -1.9170    -0.2240 H          1 MOL       0.000000
     19 H7           4.9250    -0.4260     0.2630 H          1 MOL       0.000000
     20 H8          -3.8390     0.7800     1.8310 H          1 MOL       0.000000
     21 H9          -4.9060    -0.2570     0.8850 H          1 MOL       0.000000
     22 H10         -3.6660    -0.9910     1.9320 H          1 MOL       0.000000
     23 H11         -1.2910    -0.4190    -1.8090 H          1 MOL       0.000000
     24 H12         -0.6100    -1.9470    -1.2250 H          1 MOL       0.000000
     25 H13         -1.7310    -1.4890     0.9080 H          1 MOL       0.000000
@<TRIPOS>BOND
     1     1     2 ar  
     2     1     3 ar  
     3     1    13 1   
     4     2     5 ar  
     5     2    14 1   
     6     3     6 ar  
     7     3    15 1   
     8     4     5 ar  
     9     4     6 ar  
    10     4    16 1   
    11     5     8 1   
    12     6    10 1   
    13     7     9 1   
    14     7    11 am  
    15     7    12 2   
    16     8    17 1   
    17     8    18 1   
    18     8    19 1   
    19     9    20 1   
    20     9    21 1   
    21     9    22 1   
    22    10    11 1   
    23    10    23 1   
    24    10    24 1   
    25    11    25 1   
@<TRIPOS>SUBSTRUCTURE
     1 MOL         1 TEMP              0 ****  ****    0 ROOT
