@<TRIPOS>MOLECULE
*****
 40 39 0 0 0
SMALL
GASTEIGER

@<TRIPOS>ATOM
      1 C           1.0042    0.5597   -0.2062 C.3     1  UNL1        0.0029
      2 N           2.4595    0.6157   -0.1436 N.am    1  UNL1        0.3063
      3 C           3.0367    1.5317    0.8324 C.3     1  UNL1        0.0029
      4 C           3.1670   -0.1688   -1.0444 C.2     1  UNL1        0.2337
      5 O           2.5935   -0.9245   -1.8372 O.2     1  UNL1        0.2738
      6 C           4.6998   -0.1077   -1.0718 C.3     1  UNL1        0.1046
      7 H           5.0700    0.8322   -0.6630 H       1  UNL1        0.0573
      8 C           5.2324   -1.2932   -0.2466 C.3     1  UNL1        0.0246
      9 C           6.7550   -1.4506   -0.2727 C.3     1  UNL1        0.0203
     10 C           7.5137   -0.2743    0.3214 C.3     1  UNL1        0.0646
     11 N           8.9592   -0.4734    0.1507 N.pl3   1  UNL1        0.2787
     12 C           9.6517   -0.1217   -0.9469 C.cat   1  UNL1        0.3410
     13 N           9.0759    0.4721   -1.9946 N.pl3   1  UNL1        0.2919
     14 N          10.9629   -0.3796   -0.9979 N.pl3   1  UNL1        0.2919
     15 H          11.4460   -0.8545   -0.2467 H       1  UNL1        0.2545
     16 H          11.5115   -0.1322   -1.8116 H       1  UNL1        0.2545
     17 N           5.2450   -0.2710   -2.4489 N.3     1  UNL1        0.1829
     18 S           5.0647    0.9500   -3.5804 S.O2    1  UNL1        0.0272
     19 C           3.3198    0.9872   -3.9656 C.3     1  UNL1        0.0705
     20 O           5.4589    2.1725   -2.9132 O.2     1  UNL1        0.1585
     21 O           5.7872    0.4758   -4.7380 O.2     1  UNL1        0.1585
     22 H           0.5527    0.9956    0.6895 H       1  UNL1        0.0428
     23 H           0.6691   -0.4770   -0.3019 H       1  UNL1        0.0428
     24 H           0.6803    1.1215   -1.0881 H       1  UNL1        0.0428
     25 H           2.2805    2.2360    1.1941 H       1  UNL1        0.0428
     26 H           3.8515    2.1090    0.3934 H       1  UNL1        0.0428
     27 H           3.4130    0.9460    1.6762 H       1  UNL1        0.0428
     28 H           4.8061   -2.2236   -0.6492 H       1  UNL1        0.0286
     29 H           4.8802   -1.2212    0.7885 H       1  UNL1        0.0286
     30 H           7.0992   -1.6287   -1.2990 H       1  UNL1        0.0296
     31 H           7.0238   -2.3585    0.2813 H       1  UNL1        0.0296
     32 H           7.3144   -0.1939    1.3955 H       1  UNL1        0.0655
     33 H           7.2377    0.6892   -0.1163 H       1  UNL1        0.0655
     34 H           9.4758   -0.8768    0.9220 H       1  UNL1        0.2578
     35 H           8.0803    0.6636   -2.0323 H       1  UNL1        0.2545
     36 H           9.6012    0.7470   -2.8139 H       1  UNL1        0.2545
     37 H           5.0369   -1.1833   -2.8683 H       1  UNL1        0.1485
     38 H           2.7609    1.3195   -3.0925 H       1  UNL1        0.0479
     39 H           3.0114   -0.0068   -4.2967 H       1  UNL1        0.0479
     40 H           3.1634    1.7059   -4.7717 H       1  UNL1        0.0479
@<TRIPOS>BOND
     1     1     2    1
     2     2     3    1
     3     2     4   am
     4     4     5    2
     5     4     6    1
     6     6     7    1
     7     6     8    1
     8     8     9    1
     9     9    10    1
    10    10    11    1
    11    11    12    1
    12    12    13    1
    13    12    14    2
    14    14    15    1
    15    14    16    1
    16     6    17    1
    17    17    18    1
    18    18    19    1
    19    18    20    2
    20    18    21    2
    21     1    22    1
    22     1    23    1
    23     1    24    1
    24     3    25    1
    25     3    26    1
    26     3    27    1
    27     8    28    1
    28     8    29    1
    29     9    30    1
    30     9    31    1
    31    10    32    1
    32    10    33    1
    33    11    34    1
    34    13    35    1
    35    13    36    1
    36    17    37    1
    37    19    38    1
    38    19    39    1
    39    19    40    1
