@<TRIPOS>MOLECULE
MOL
   19    19     1     0     0
SMALL
No Charge or Current Charge


@<TRIPOS>ATOM
 1  C1  1.051000  1.868000  0.276000  C.2  1  MOL  -0.174796 
 2  C2  2.365000  1.311000  0.353000  C.2  1  MOL  -0.086347 
 3  C3  0.085000  0.971000  -0.096000  C.2  1  MOL  0.010910 
 4  C4  2.369000  -0.017000  0.039000  C.2  1  MOL  -0.097670 
 5  C5  -3.306000  -0.308000  -0.041000  C.2  1  MOL  0.510929 
 6  C6  -4.084000  -1.178000  0.934000  C.3  1  MOL  -0.313908 
 7  C7  -1.380000  1.228000  -0.304000  C.3  1  MOL  -0.077075 
 8  N1  -2.232000  0.358000  0.494000  N.am  1  MOL  -0.353167 
 9  O1  -3.618000  -0.215000  -1.221000  O.2  1  MOL  -0.514977 
 10  S1  0.781000  -0.617000  -0.360000  S.3  1  MOL  0.025234 
 11  Cl1  3.739000  -1.078000  0.027000  Cl  1  MOL  -0.041541 
 12  H1  0.831000  2.910000  0.487000  H  1  MOL  0.163456 
 13  H2  3.254000  1.864000  0.633000  H  1  MOL  0.158237 
 14  H3  -5.120000  -0.826000  0.970000  H  1  MOL  0.111818 
 15  H4  -4.101000  -2.203000  0.552000  H  1  MOL  0.116842 
 16  H5  -3.674000  -1.182000  1.949000  H  1  MOL  0.089295 
 17  H6  -1.572000  2.285000  -0.073000  H  1  MOL  0.107905 
 18  H7  -1.685000  1.062000  -1.342000  H  1  MOL  0.107905 
 19  H8  -2.023000  0.258000  1.477000  H  1  MOL  0.256949 
@<TRIPOS>BOND
     1     1     2 1   
     2     1     3 2   
     3     1    12 1   
     4     2     4 2   
     5     2    13 1   
     6     3     7 1   
     7     3    10 1   
     8     4    10 1   
     9     4    11 1   
    10     5     6 1   
    11     5     8 am  
    12     5     9 2   
    13     6    14 1   
    14     6    15 1   
    15     6    16 1   
    16     7     8 1   
    17     7    17 1   
    18     7    18 1   
    19     8    19 1   
@<TRIPOS>SUBSTRUCTURE
     1 MOL         1 TEMP              0 ****  ****    0 ROOT
