@<TRIPOS>MOLECULE
MOL
   19    19     1     0     0
SMALL
No Charge or Current Charge


@<TRIPOS>ATOM
      1 C1           1.0510     1.8680     0.2760 C.2        1 MOL       0.000000
      2 C2           2.3650     1.3110     0.3530 C.2        1 MOL       0.000000
      3 C3           0.0850     0.9710    -0.0960 C.2        1 MOL       0.000000
      4 C4           2.3690    -0.0170     0.0390 C.2        1 MOL       0.000000
      5 C5          -3.3060    -0.3080    -0.0410 C.2        1 MOL       0.000000
      6 C6          -4.0840    -1.1780     0.9340 C.3        1 MOL       0.000000
      7 C7          -1.3800     1.2280    -0.3040 C.3        1 MOL       0.000000
      8 N1          -2.2320     0.3580     0.4940 N.am       1 MOL       0.000000
      9 O1          -3.6180    -0.2150    -1.2210 O.2        1 MOL       0.000000
     10 S1           0.7810    -0.6170    -0.3600 S.3        1 MOL       0.000000
     11 Cl1          3.7390    -1.0780     0.0270 Cl         1 MOL       0.000000
     12 H1           0.8310     2.9100     0.4870 H          1 MOL       0.000000
     13 H2           3.2540     1.8640     0.6330 H          1 MOL       0.000000
     14 H3          -5.1200    -0.8260     0.9700 H          1 MOL       0.000000
     15 H4          -4.1010    -2.2030     0.5520 H          1 MOL       0.000000
     16 H5          -3.6740    -1.1820     1.9490 H          1 MOL       0.000000
     17 H6          -1.5720     2.2850    -0.0730 H          1 MOL       0.000000
     18 H7          -1.6850     1.0620    -1.3420 H          1 MOL       0.000000
     19 H8          -2.0230     0.2580     1.4770 H          1 MOL       0.000000
@<TRIPOS>BOND
     1     1     2 1   
     2     1     3 2   
     3     1    12 1   
     4     2     4 2   
     5     2    13 1   
     6     3     7 1   
     7     3    10 1   
     8     4    10 1   
     9     4    11 1   
    10     5     6 1   
    11     5     8 am  
    12     5     9 2   
    13     6    14 1   
    14     6    15 1   
    15     6    16 1   
    16     7     8 1   
    17     7    17 1   
    18     7    18 1   
    19     8    19 1   
@<TRIPOS>SUBSTRUCTURE
     1 MOL         1 TEMP              0 ****  ****    0 ROOT
