@<TRIPOS>MOLECULE
*****
 25 25 0 0 0
SMALL
GASTEIGER

@<TRIPOS>ATOM
      1 C           4.3077    0.9896   -3.5891 C.3     1  UNL1        0.0122
      2 C           4.3372    1.6909   -2.2628 C.2     1  UNL1        0.2104
      3 O           4.1255    2.8938   -2.1608 O.2     1  UNL1        0.2761
      4 N           4.6679    0.8820   -1.1915 N.am    1  UNL1        0.3056
      5 C           4.5399    1.3271    0.1927 C.3     1  UNL1        0.0965
      6 C           5.0835    2.7195    0.4652 C.ar    1  UNL1        0.2022
      7 C           4.1876    3.8043    0.4746 C.ar    1  UNL1        0.0253
      8 C           4.6696    5.1013    0.4970 C.ar    1  UNL1        0.0525
      9 CL          3.5876    6.4230    0.3359 Cl      1  UNL1        0.0831
     10 C           6.0284    5.3269    0.5980 C.ar    1  UNL1        0.0204
     11 C           6.8854    4.2390    0.6513 C.ar    1  UNL1        0.1726
     12 N           6.4236    2.9674    0.5615 N.ar    1  UNL1        0.2025
     13 C           7.4072    1.8665    0.5099 C.3     1  UNL1        0.1407
     14 H           4.1587    1.7301   -4.3815 H       1  UNL1        0.0322
     15 H           3.4820    0.2749   -3.6133 H       1  UNL1        0.0322
     16 H           5.2588    0.4805   -3.7618 H       1  UNL1        0.0322
     17 H           4.5513   -0.1138   -1.3577 H       1  UNL1        0.1492
     18 H           5.0698    0.5933    0.8092 H       1  UNL1        0.0572
     19 H           3.4832    1.2602    0.4758 H       1  UNL1        0.0572
     20 H           3.1201    3.6299    0.3441 H       1  UNL1        0.0695
     21 H           6.4243    6.3392    0.6097 H       1  UNL1        0.0691
     22 H           7.9595    4.3829    0.7362 H       1  UNL1        0.1376
     23 H           8.4191    2.2605    0.6351 H       1  UNL1        0.0993
     24 H           7.3263    1.3815   -0.4652 H       1  UNL1        0.0993
     25 H           7.1922    1.1746    1.3278 H       1  UNL1        0.0993
@<TRIPOS>BOND
     1     1     2    1
     2     2     3    2
     3     2     4   am
     4     4     5    1
     5     5     6    1
     6     6     7   ar
     7     7     8   ar
     8     8     9    1
     9     8    10   ar
    10    10    11   ar
    11    11    12   ar
    12     6    12   ar
    13    12    13    1
    14     1    14    1
    15     1    15    1
    16     1    16    1
    17     4    17    1
    18     5    18    1
    19     5    19    1
    20     7    20    1
    21    10    21    1
    22    11    22    1
    23    13    23    1
    24    13    24    1
    25    13    25    1
