@<TRIPOS>MOLECULE
MOL
   23    23     1     0     0
SMALL
No Charge or Current Charge


@<TRIPOS>ATOM
 1  C1  1.340000  1.498000  0.063000  C.ar  1  MOL  -0.136188 
 2  C2  0.594000  -0.695000  -0.583000  C.ar  1  MOL  -0.136188 
 3  C3  2.607000  0.997000  0.356000  C.ar  1  MOL  -0.308606 
 4  C4  1.855000  -1.211000  -0.293000  C.ar  1  MOL  -0.308606 
 5  C5  0.316000  0.668000  -0.407000  C.ar  1  MOL  0.029179 
 6  C6  2.867000  -0.365000  0.178000  C.ar  1  MOL  0.378652 
 7  C7  -2.891000  -0.276000  0.056000  C.2  1  MOL  0.419930 
 8  C8  -3.830000  -0.619000  1.205000  C.3  1  MOL  -0.016420 
 9  C9  -1.066000  1.214000  -0.709000  C.3  1  MOL  0.038361 
 10  N1  -2.088000  0.813000  0.258000  N.am  1  MOL  -0.425469 
 11  O1  -2.875000  -0.933000  -0.980000  O.2  1  MOL  -0.497640 
 12  O2  4.124000  -0.813000  0.477000  O.3  1  MOL  -0.597310 
 13  H1  1.149000  2.561000  0.201000  H  1  MOL  0.145520 
 14  H2  -0.188000  -1.353000  -0.951000  H  1  MOL  0.145520 
 15  H3  3.401000  1.642000  0.718000  H  1  MOL  0.189995 
 16  H4  2.058000  -2.271000  -0.439000  H  1  MOL  0.189995 
 17  H5  -4.849000  -0.684000  0.815000  H  1  MOL  0.031380 
 18  H6  -3.566000  -1.607000  1.595000  H  1  MOL  0.031380 
 19  H7  -3.808000  0.105000  2.026000  H  1  MOL  0.031380 
 20  H8  -1.038000  2.309000  -0.744000  H  1  MOL  0.062167 
 21  H9  -1.420000  0.854000  -1.678000  H  1  MOL  0.062167 
 22  H10  -2.040000  1.210000  1.185000  H  1  MOL  0.260405 
 23  H11  4.167000  -1.766000  0.302000  H  1  MOL  0.410396 
@<TRIPOS>BOND
     1     1     3 ar  
     2     1     5 ar  
     3     1    13 1   
     4     2     4 ar  
     5     2     5 ar  
     6     2    14 1   
     7     3     6 ar  
     8     3    15 1   
     9     4     6 ar  
    10     4    16 1   
    11     5     9 1   
    12     6    12 1   
    13     7     8 1   
    14     7    10 am  
    15     7    11 2   
    16     8    17 1   
    17     8    18 1   
    18     8    19 1   
    19     9    10 1   
    20     9    20 1   
    21     9    21 1   
    22    10    22 1   
    23    12    23 1   
@<TRIPOS>SUBSTRUCTURE
     1 MOL         1 TEMP              0 ****  ****    0 ROOT
