@<TRIPOS>MOLECULE
*****
 35 34 0 0 0
SMALL
GASTEIGER

@<TRIPOS>ATOM
      1 C           1.0018    2.4988   -1.2205 C.3     1  UNL1        0.0626
      2 C           2.5022    2.4431   -0.9239 C.3     1  UNL1        0.0448
      3 C           2.7632    3.1654    0.3974 C.3     1  UNL1        0.0626
      4 C           3.0713    1.0028   -0.9268 C.3     1  UNL1        0.0251
      5 C           4.6190    0.9462   -0.7823 C.3     1  UNL1        0.1048
      6 H           4.8736    1.2761    0.2199 H       1  UNL1        0.0573
      7 N           5.0611   -0.4617   -0.8696 N.3     1  UNL1        0.1829
      8 S           6.6380   -0.8993   -0.5603 S.O2    1  UNL1        0.0272
      9 C           7.5684   -0.3222   -1.9665 C.3     1  UNL1        0.0705
     10 O           7.0793   -0.1656    0.6073 O.2     1  UNL1        0.1585
     11 O           6.6590   -2.3442   -0.5959 O.2     1  UNL1        0.1585
     12 C           5.2350    1.8305   -1.8830 C.2     1  UNL1        0.2337
     13 O           5.1432    1.4651   -3.0619 O.2     1  UNL1        0.2738
     14 N           5.8262    3.0466   -1.5489 N.am    1  UNL1        0.3063
     15 C           6.2245    3.4838   -0.2159 C.3     1  UNL1        0.0029
     16 C           6.1760    3.9756   -2.6158 C.3     1  UNL1        0.0029
     17 H           0.7174    3.5303   -1.4642 H       1  UNL1        0.0232
     18 H           0.4057    2.1916   -0.3550 H       1  UNL1        0.0232
     19 H           0.7267    1.8704   -2.0721 H       1  UNL1        0.0232
     20 H           2.9892    3.0015   -1.7319 H       1  UNL1        0.0296
     21 H           2.0792    2.8229    1.1796 H       1  UNL1        0.0232
     22 H           2.6312    4.2442    0.2692 H       1  UNL1        0.0232
     23 H           3.7720    3.0085    0.7728 H       1  UNL1        0.0232
     24 H           2.7817    0.5089   -1.8656 H       1  UNL1        0.0288
     25 H           2.6094    0.4153   -0.1226 H       1  UNL1        0.0288
     26 H           4.5206   -1.1200   -1.4282 H       1  UNL1        0.1485
     27 H           7.5371    0.7639   -2.0112 H       1  UNL1        0.0479
     28 H           7.1701   -0.7805   -2.8725 H       1  UNL1        0.0479
     29 H           8.6084   -0.6273   -1.8237 H       1  UNL1        0.0479
     30 H           5.9700    2.7869    0.5768 H       1  UNL1        0.0428
     31 H           5.7481    4.4480   -0.0097 H       1  UNL1        0.0428
     32 H           7.3105    3.6124   -0.2048 H       1  UNL1        0.0428
     33 H           5.8449    3.6348   -3.5994 H       1  UNL1        0.0428
     34 H           7.2615    4.1098   -2.6279 H       1  UNL1        0.0428
     35 H           5.6976    4.9388   -2.4068 H       1  UNL1        0.0428
@<TRIPOS>BOND
     1     1     2    1
     2     2     3    1
     3     2     4    1
     4     4     5    1
     5     5     6    1
     6     5     7    1
     7     7     8    1
     8     8     9    1
     9     8    10    2
    10     8    11    2
    11     5    12    1
    12    12    13    2
    13    12    14   am
    14    14    15    1
    15    14    16    1
    16     1    17    1
    17     1    18    1
    18     1    19    1
    19     2    20    1
    20     3    21    1
    21     3    22    1
    22     3    23    1
    23     4    24    1
    24     4    25    1
    25     7    26    1
    26     9    27    1
    27     9    28    1
    28     9    29    1
    29    15    30    1
    30    15    31    1
    31    15    32    1
    32    16    33    1
    33    16    34    1
    34    16    35    1
