@<TRIPOS>MOLECULE
MOL
   23    23     1     0     0
SMALL
No Charge or Current Charge


@<TRIPOS>ATOM
 1  C1  -2.704000  -1.313000  0.457000  C.ar  1  MOL  -0.300951 
 2  C2  -1.441000  -1.747000  0.042000  C.ar  1  MOL  -0.104591 
 3  C3  -3.028000  0.040000  0.453000  C.ar  1  MOL  -0.118029 
 4  C4  -0.811000  0.545000  -0.394000  C.ar  1  MOL  -0.168443 
 5  C5  -0.488000  -0.818000  -0.385000  C.ar  1  MOL  0.051817 
 6  C6  -2.073000  0.971000  0.023000  C.ar  1  MOL  0.216874 
 7  C7  2.667000  0.248000  0.021000  C.2  1  MOL  0.510929 
 8  C8  3.676000  0.496000  1.133000  C.3  1  MOL  -0.313908 
 9  C9  0.895000  -1.262000  -0.825000  C.3  1  MOL  -0.169573 
 10  N1  1.956000  -0.916000  0.120000  N.am  1  MOL  -0.353167 
 11  O1  2.520000  1.041000  -0.905000  O.2  1  MOL  -0.514977 
 12  O2  -2.436000  2.290000  0.030000  O.3  1  MOL  -0.582679 
 13  H1  -3.444000  -2.038000  0.786000  H  1  MOL  0.185126 
 14  H2  -1.201000  -2.808000  0.045000  H  1  MOL  0.123850 
 15  H3  -4.004000  0.393000  0.770000  H  1  MOL  0.162491 
 16  H4  -0.067000  1.266000  -0.729000  H  1  MOL  0.124669 
 17  H5  4.651000  0.697000  0.682000  H  1  MOL  0.111818 
 18  H6  3.380000  1.394000  1.686000  H  1  MOL  0.116842 
 19  H7  3.773000  -0.337000  1.837000  H  1  MOL  0.089295 
 20  H8  0.912000  -2.347000  -0.974000  H  1  MOL  0.119110 
 21  H9  1.167000  -0.785000  -1.770000  H  1  MOL  0.119110 
 22  H10  2.014000  -1.445000  0.978000  H  1  MOL  0.256949 
 23  H11  -1.692000  2.819000  -0.297000  H  1  MOL  0.437437 
@<TRIPOS>BOND
     1     1     2 ar  
     2     1     3 ar  
     3     1    13 1   
     4     2     5 ar  
     5     2    14 1   
     6     3     6 ar  
     7     3    15 1   
     8     4     5 ar  
     9     4     6 ar  
    10     4    16 1   
    11     5     9 1   
    12     6    12 1   
    13     7     8 1   
    14     7    10 am  
    15     7    11 2   
    16     8    17 1   
    17     8    18 1   
    18     8    19 1   
    19     9    10 1   
    20     9    20 1   
    21     9    21 1   
    22    10    22 1   
    23    12    23 1   
@<TRIPOS>SUBSTRUCTURE
     1 MOL         1 TEMP              0 ****  ****    0 ROOT
