@<TRIPOS>MOLECULE
*****
 21 21 0 0 0
SMALL
GASTEIGER

@<TRIPOS>ATOM
      1 C           1.0814    0.4073   -1.1619 C.3     1  UNL1        0.0122
      2 C           2.5775    0.5319   -1.2490 C.2     1  UNL1        0.2102
      3 O           3.1347    1.5675   -1.5938 O.2     1  UNL1        0.2761
      4 N           3.2430   -0.6284   -0.9360 N.am    1  UNL1        0.3113
      5 C           4.6879   -0.7419   -1.0242 C.3     1  UNL1        0.0396
      6 C           5.1087   -1.8290   -1.9744 C.ar    1  UNL1        0.0060
      7 C           4.3760   -2.0911   -3.1287 C.ar    1  UNL1        0.0336
      8 N           4.6366   -3.0979   -3.9936 N.ar    1  UNL1        0.2628
      9 C           5.7133   -3.8631   -3.7341 C.ar    1  UNL1        0.0290
     10 C           6.5643   -3.6405   -2.6707 C.ar    1  UNL1        0.0249
     11 C           6.2581   -2.6037   -1.7918 C.ar    1  UNL1        0.0485
     12 CL          7.3507   -2.3216   -0.4831 Cl      1  UNL1        0.0831
     13 H           0.6204    1.3630   -1.4267 H       1  UNL1        0.0322
     14 H           0.7841    0.1407   -0.1444 H       1  UNL1        0.0322
     15 H           0.7330   -0.3561   -1.8637 H       1  UNL1        0.0322
     16 H           2.7183   -1.4336   -0.6179 H       1  UNL1        0.1490
     17 H           5.0074   -0.9740   -0.0034 H       1  UNL1        0.0512
     18 H           5.1420    0.2090   -1.3203 H       1  UNL1        0.0512
     19 H           3.5145   -1.4852   -3.4020 H       1  UNL1        0.0833
     20 H           5.8808   -4.6808   -4.4291 H       1  UNL1        0.0830
     21 H           7.4391   -4.2650   -2.5300 H       1  UNL1        0.0647
@<TRIPOS>BOND
     1     1     2    1
     2     2     3    2
     3     2     4   am
     4     4     5    1
     5     5     6    1
     6     6     7   ar
     7     7     8   ar
     8     8     9   ar
     9     9    10   ar
    10    10    11   ar
    11     6    11   ar
    12    11    12    1
    13     1    13    1
    14     1    14    1
    15     1    15    1
    16     4    16    1
    17     5    17    1
    18     5    18    1
    19     7    19    1
    20     9    20    1
    21    10    21    1
