@<TRIPOS>MOLECULE
MOL
   29    29     1     0     0
SMALL
No Charge or Current Charge


@<TRIPOS>ATOM
 1  C1  -1.402000  0.209000  -0.210000  C.2  1  MOL  0.596329 
 2  C2  1.382000  -1.689000  -0.038000  C.2  1  MOL  0.562201 
 3  C3  0.752000  2.512000  0.401000  C.3  1  MOL  -0.063070 
 4  C4  2.012000  1.903000  -0.224000  C.3  1  MOL  -0.001740 
 5  C5  0.117000  1.507000  1.368000  C.3  1  MOL  -0.004342 
 6  C6  1.695000  0.577000  -0.918000  C.3  1  MOL  0.004797 
 7  C7  -0.167000  0.132000  0.713000  C.3  1  MOL  -0.252712 
 8  C8  0.599000  -2.672000  0.829000  C.3  1  MOL  -0.157534 
 9  C9  -3.795000  -0.393000  -0.415000  C.3  1  MOL  -0.006198 
 10  N1  1.012000  -0.359000  -0.004000  N.am  1  MOL  -0.199344 
 11  N2  -2.519000  -0.409000  0.282000  N.am  1  MOL  -0.470020 
 12  O1  -1.385000  0.791000  -1.290000  O.2  1  MOL  -0.524049 
 13  O2  2.318000  -2.085000  -0.723000  O.2  1  MOL  -0.565919 
 14  H1  0.993000  3.436000  0.941000  H  1  MOL  0.037523 
 15  H2  0.035000  2.769000  -0.387000  H  1  MOL  0.037523 
 16  H3  2.451000  2.589000  -0.958000  H  1  MOL  0.021909 
 17  H4  2.769000  1.736000  0.556000  H  1  MOL  0.021909 
 18  H5  0.801000  1.332000  2.209000  H  1  MOL  0.039910 
 19  H6  -0.818000  1.897000  1.789000  H  1  MOL  0.039910 
 20  H7  1.051000  0.754000  -1.787000  H  1  MOL  0.057798 
 21  H8  2.599000  0.071000  -1.254000  H  1  MOL  0.057798 
 22  H9  -0.379000  -0.570000  1.523000  H  1  MOL  0.129850 
 23  H10  -0.467000  -2.687000  0.576000  H  1  MOL  0.062556 
 24  H11  0.693000  -2.444000  1.897000  H  1  MOL  0.040540 
 25  H12  1.019000  -3.662000  0.646000  H  1  MOL  0.058157 
 26  H13  -3.635000  0.104000  -1.372000  H  1  MOL  0.068972 
 27  H14  -4.554000  0.158000  0.155000  H  1  MOL  0.058547 
 28  H15  -4.156000  -1.412000  -0.593000  H  1  MOL  0.062004 
 29  H16  -2.470000  -0.860000  1.183000  H  1  MOL  0.286695 
@<TRIPOS>BOND
     1     1     7 1   
     2     1    11 am  
     3     1    12 2   
     4     2     8 1   
     5     2    10 am  
     6     2    13 2   
     7     3     4 1   
     8     3     5 1   
     9     3    14 1   
    10     3    15 1   
    11     4     6 1   
    12     4    16 1   
    13     4    17 1   
    14     5     7 1   
    15     5    18 1   
    16     5    19 1   
    17     6    10 1   
    18     6    20 1   
    19     6    21 1   
    20     7    10 1   
    21     7    22 1   
    22     8    23 1   
    23     8    24 1   
    24     8    25 1   
    25     9    11 1   
    26     9    26 1   
    27     9    27 1   
    28     9    28 1   
    29    11    29 1   
@<TRIPOS>SUBSTRUCTURE
     1 MOL         1 TEMP              0 ****  ****    0 ROOT
