@<TRIPOS>MOLECULE
MOL
   29    29     1     0     0
SMALL
No Charge or Current Charge


@<TRIPOS>ATOM
      1 C1          -1.4020     0.2090    -0.2100 C.2        1 MOL       0.000000
      2 C2           1.3820    -1.6890    -0.0380 C.2        1 MOL       0.000000
      3 C3           0.7520     2.5120     0.4010 C.3        1 MOL       0.000000
      4 C4           2.0120     1.9030    -0.2240 C.3        1 MOL       0.000000
      5 C5           0.1170     1.5070     1.3680 C.3        1 MOL       0.000000
      6 C6           1.6950     0.5770    -0.9180 C.3        1 MOL       0.000000
      7 C7          -0.1670     0.1320     0.7130 C.3        1 MOL       0.000000
      8 C8           0.5990    -2.6720     0.8290 C.3        1 MOL       0.000000
      9 C9          -3.7950    -0.3930    -0.4150 C.3        1 MOL       0.000000
     10 N1           1.0120    -0.3590    -0.0040 N.am       1 MOL       0.000000
     11 N2          -2.5190    -0.4090     0.2820 N.am       1 MOL       0.000000
     12 O1          -1.3850     0.7910    -1.2900 O.2        1 MOL       0.000000
     13 O2           2.3180    -2.0850    -0.7230 O.2        1 MOL       0.000000
     14 H1           0.9930     3.4360     0.9410 H          1 MOL       0.000000
     15 H2           0.0350     2.7690    -0.3870 H          1 MOL       0.000000
     16 H3           2.4510     2.5890    -0.9580 H          1 MOL       0.000000
     17 H4           2.7690     1.7360     0.5560 H          1 MOL       0.000000
     18 H5           0.8010     1.3320     2.2090 H          1 MOL       0.000000
     19 H6          -0.8180     1.8970     1.7890 H          1 MOL       0.000000
     20 H7           1.0510     0.7540    -1.7870 H          1 MOL       0.000000
     21 H8           2.5990     0.0710    -1.2540 H          1 MOL       0.000000
     22 H9          -0.3790    -0.5700     1.5230 H          1 MOL       0.000000
     23 H10         -0.4670    -2.6870     0.5760 H          1 MOL       0.000000
     24 H11          0.6930    -2.4440     1.8970 H          1 MOL       0.000000
     25 H12          1.0190    -3.6620     0.6460 H          1 MOL       0.000000
     26 H13         -3.6350     0.1040    -1.3720 H          1 MOL       0.000000
     27 H14         -4.5540     0.1580     0.1550 H          1 MOL       0.000000
     28 H15         -4.1560    -1.4120    -0.5930 H          1 MOL       0.000000
     29 H16         -2.4700    -0.8600     1.1830 H          1 MOL       0.000000
@<TRIPOS>BOND
     1     1     7 1   
     2     1    11 am  
     3     1    12 2   
     4     2     8 1   
     5     2    10 am  
     6     2    13 2   
     7     3     4 1   
     8     3     5 1   
     9     3    14 1   
    10     3    15 1   
    11     4     6 1   
    12     4    16 1   
    13     4    17 1   
    14     5     7 1   
    15     5    18 1   
    16     5    19 1   
    17     6    10 1   
    18     6    20 1   
    19     6    21 1   
    20     7    10 1   
    21     7    22 1   
    22     8    23 1   
    23     8    24 1   
    24     8    25 1   
    25     9    11 1   
    26     9    26 1   
    27     9    27 1   
    28     9    28 1   
    29    11    29 1   
@<TRIPOS>SUBSTRUCTURE
     1 MOL         1 TEMP              0 ****  ****    0 ROOT
