@<TRIPOS>MOLECULE
MOL
   28    28     1     0     0
SMALL
No Charge or Current Charge


@<TRIPOS>ATOM
      1 C1          1.8000   -1.3250   -0.3320 C.ar      1 MOL      0.000000
      2 C2          1.1420    0.8780    0.4640 C.ar      1 MOL      0.000000
      3 C3          0.4840   -1.7530   -0.1980 C.ar      1 MOL      0.000000
      4 C4         -0.1660    0.4370    0.6000 C.ar      1 MOL      0.000000
      5 C5          2.1410   -0.0010   -0.0020 C.ar      1 MOL      0.000000
      6 C6         -0.5130   -0.8850    0.2680 C.ar      1 MOL      0.000000
      7 C7          3.5230    0.4600   -0.1370 C.2       1 MOL      0.000000
      8 C8         -3.5450    0.4670   -0.0240 C.2       1 MOL      0.000000
      9 C9         -4.6610    0.9550   -0.9260 C.3       1 MOL      0.000000
     10 C10        -1.9490   -1.3570    0.4400 C.3       1 MOL      0.000000
     11 N1          4.5330   -0.3790    0.0840 N.3       1 MOL      0.000000
     12 N2         -2.9020   -0.6770   -0.4280 N.am      1 MOL      0.000000
     13 N3          3.7740    1.7210   -0.4800 N.3       1 MOL      0.000000
     14 O1         -3.2330    1.0410    1.0140 O.2       1 MOL      0.000000
     15 H1          2.5450   -2.0040   -0.7380 H         1 MOL      0.000000
     16 H2          1.3980    1.8870    0.7750 H         1 MOL      0.000000
     17 H3          0.2280   -2.7740   -0.4680 H         1 MOL      0.000000
     18 H4         -0.9380    1.0990    0.9800 H         1 MOL      0.000000
     19 H5         -5.6200    0.7720   -0.4290 H         1 MOL      0.000000
     20 H6         -4.5640    2.0360   -1.0570 H         1 MOL      0.000000
     21 H7         -4.6780    0.4700   -1.9060 H         1 MOL      0.000000
     22 H8         -2.0140   -2.4330    0.2520 H         1 MOL      0.000000
     23 H9         -2.2590   -1.1720    1.4740 H         1 MOL      0.000000
     24 H10         4.3550   -1.2810    0.5050 H         1 MOL      0.000000
     25 H11         5.5000   -0.1300   -0.0860 H         1 MOL      0.000000
     26 H12        -3.1930   -1.1360   -1.2790 H         1 MOL      0.000000
     27 H13         3.0210    2.3170   -0.7970 H         1 MOL      0.000000
     28 H14         4.7080    2.1130   -0.4850 H         1 MOL      0.000000
@<TRIPOS>BOND
     1    1    3 ar  
     2    1    5 ar  
     3    1   15 1   
     4    2    4 ar  
     5    2    5 ar  
     6    2   16 1   
     7    3    6 ar  
     8    3   17 1   
     9    4    6 ar  
    10    4   18 1   
    11    5    7 1   
    12    6   10 1   
    13    7   11 2   
    14    7   13 1   
    15    8    9 1   
    16    8   12 am  
    17    8   14 2   
    18    9   19 1   
    19    9   20 1   
    20    9   21 1   
    21   10   12 1   
    22   10   22 1   
    23   10   23 1   
    24   11   24 1   
    25   11   25 1   
    26   12   26 1   
    27   13   27 1   
    28   13   28 1   
@<TRIPOS>SUBSTRUCTURE
     1 MOL         1 TEMP              0 ****  ****    0 ROOT
