@<TRIPOS>MOLECULE
MOL
   28    28     1     0     0
SMALL
No Charge or Current Charge


@<TRIPOS>ATOM
 1  C1  1.800000  -1.325000  -0.332000  C.ar  1  MOL  -0.194870 
 2  C2  1.142000  0.878000  0.464000  C.ar  1  MOL  -0.194870 
 3  C3  0.484000  -1.753000  -0.198000  C.ar  1  MOL  -0.088873 
 4  C4  -0.166000  0.437000  0.600000  C.ar  1  MOL  -0.088873 
 5  C5  2.141000  -0.001000  -0.002000  C.ar  1  MOL  -0.041397 
 6  C6  -0.513000  -0.885000  0.268000  C.ar  1  MOL  0.171397 
 7  C7  3.523000  0.460000  -0.137000  C.2  1  MOL  0.657466 
 8  C8  -3.545000  0.467000  -0.024000  C.2  1  MOL  0.419930 
 9  C9  -4.661000  0.955000  -0.926000  C.3  1  MOL  -0.016420 
 10  C10  -1.949000  -1.357000  0.440000  C.3  1  MOL  -0.535893 
 11  N1  4.533000  -0.379000  0.084000  N.3  1  MOL  -0.793460 
 12  N2  -2.902000  -0.677000  -0.428000  N.am  1  MOL  -0.166421 
 13  N3  3.774000  1.721000  -0.480000  N.3  1  MOL  -0.802411 
 14  O1  -3.233000  1.041000  1.014000  O.2  1  MOL  -0.497640 
 15  H1  2.545000  -2.004000  -0.738000  H  1  MOL  0.161741 
 16  H2  1.398000  1.887000  0.775000  H  1  MOL  0.161741 
 17  H3  0.228000  -2.774000  -0.468000  H  1  MOL  0.158588 
 18  H4  -0.938000  1.099000  0.980000  H  1  MOL  0.158588 
 19  H5  -5.620000  0.772000  -0.429000  H  1  MOL  0.031380 
 20  H6  -4.564000  2.036000  -1.057000  H  1  MOL  0.031380 
 21  H7  -4.678000  0.470000  -1.906000  H  1  MOL  0.031380 
 22  H8  -2.014000  -2.433000  0.252000  H  1  MOL  0.235807 
 23  H9  -2.259000  -1.172000  1.474000  H  1  MOL  0.235807 
 24  H10  4.355000  -1.281000  0.505000  H  1  MOL  0.429476 
 25  H11  5.500000  -0.130000  -0.086000  H  1  MOL  0.429476 
 26  H12  -3.193000  -1.136000  -1.279000  H  1  MOL  0.224339 
 27  H13  3.021000  2.317000  -0.797000  H  1  MOL  0.441316 
 28  H14  4.708000  2.113000  -0.485000  H  1  MOL  0.441316 
@<TRIPOS>BOND
     1    1    3 ar  
     2    1    5 ar  
     3    1   15 1   
     4    2    4 ar  
     5    2    5 ar  
     6    2   16 1   
     7    3    6 ar  
     8    3   17 1   
     9    4    6 ar  
    10    4   18 1   
    11    5    7 1   
    12    6   10 1   
    13    7   11 2   
    14    7   13 1   
    15    8    9 1   
    16    8   12 am  
    17    8   14 2   
    18    9   19 1   
    19    9   20 1   
    20    9   21 1   
    21   10   12 1   
    22   10   22 1   
    23   10   23 1   
    24   11   24 1   
    25   11   25 1   
    26   12   26 1   
    27   13   27 1   
    28   13   28 1   
@<TRIPOS>SUBSTRUCTURE
     1 MOL         1 TEMP              0 ****  ****    0 ROOT
