@<TRIPOS>MOLECULE
MOL
   21    21     1     0     0
SMALL
No Charge or Current Charge


@<TRIPOS>ATOM
      1 C1           3.2910    -0.7560     0.0000 C.ar       1 MOL       0.000000
      2 C2           3.4690     0.6300    -0.0000 C.ar       1 MOL       0.000000
      3 C3           1.9980    -1.2680     0.0000 C.ar       1 MOL       0.000000
      4 C4           2.3350     1.4360    -0.0000 C.ar       1 MOL       0.000000
      5 C5           0.9160    -0.3770     0.0000 C.ar       1 MOL       0.000000
      6 C6          -2.8000    -0.0550     0.0000 C.2        1 MOL       0.000000
      7 C7          -3.6870     1.1820     0.0000 C.3        1 MOL       0.000000
      8 C8          -0.5070    -0.9040    -0.0000 C.3        1 MOL       0.000000
      9 N1           1.0840     0.9510    -0.0000 N.ar       1 MOL       0.000000
     10 N2          -1.4610     0.1810     0.0000 N.am       1 MOL       0.000000
     11 O1          -3.2640    -1.1920    -0.0000 O.2        1 MOL       0.000000
     12 H1           4.1470    -1.4250     0.0000 H          1 MOL       0.000000
     13 H2           4.4600     1.0730    -0.0000 H          1 MOL       0.000000
     14 H3           1.8210    -2.3400     0.0000 H          1 MOL       0.000000
     15 H4           2.4240     2.5200    -0.0000 H          1 MOL       0.000000
     16 H5          -4.3350     1.1530    -0.8810 H          1 MOL       0.000000
     17 H6          -4.3350     1.1530     0.8810 H          1 MOL       0.000000
     18 H7          -3.1280     2.1240     0.0000 H          1 MOL       0.000000
     19 H8          -0.6660    -1.5500    -0.8750 H          1 MOL       0.000000
     20 H9          -0.6660    -1.5500     0.8750 H          1 MOL       0.000000
     21 H10         -1.0660     1.1140     0.0000 H          1 MOL       0.000000
@<TRIPOS>BOND
     1     1     2 ar  
     2     1     3 ar  
     3     1    12 1   
     4     2     4 ar  
     5     2    13 1   
     6     3     5 ar  
     7     3    14 1   
     8     4     9 ar  
     9     4    15 1   
    10     5     8 1   
    11     5     9 ar  
    12     6     7 1   
    13     6    10 am  
    14     6    11 2   
    15     7    16 1   
    16     7    17 1   
    17     7    18 1   
    18     8    10 1   
    19     8    19 1   
    20     8    20 1   
    21    10    21 1   
@<TRIPOS>SUBSTRUCTURE
     1 MOL         1 TEMP              0 ****  ****    0 ROOT
