@<TRIPOS>MOLECULE
MOL
   26    25     1     0     0
SMALL
No Charge or Current Charge


@<TRIPOS>ATOM
 1  C1  -2.529000  -0.630000  -0.011000  C.2  1  MOL  0.510929 
 2  C2  2.876000  -0.338000  0.076000  C.cat  1  MOL  0.702063 
 3  C3  -3.616000  -1.459000  0.643000  C.3  1  MOL  -0.313908 
 4  C4  -0.217000  1.776000  0.069000  C.3  1  MOL  -0.062678 
 5  C5  -1.684000  1.668000  -0.390000  C.3  1  MOL  0.062985 
 6  C6  0.584000  0.519000  -0.270000  C.3  1  MOL  -0.083611 
 7  N1  4.146000  -0.152000  0.478000  N.3  1  MOL  -0.887803 
 8  N2  -2.487000  0.693000  0.342000  N.am  1  MOL  -0.353167 
 9  N3  2.010000  0.675000  0.081000  N.3  1  MOL  -0.410242 
 10  N4  2.486000  -1.558000  -0.320000  N.3  1  MOL  -0.755157 
 11  O1  -1.730000  -1.105000  -0.819000  O.2  1  MOL  -0.514977 
 12  H1  -4.032000  -0.999000  1.545000  H  1  MOL  0.111818 
 13  H2  -4.429000  -1.608000  -0.077000  H  1  MOL  0.116842 
 14  H3  -3.214000  -2.444000  0.890000  H  1  MOL  0.089295 
 15  H4  -0.177000  1.968000  1.148000  H  1  MOL  0.056823 
 16  H5  0.227000  2.643000  -0.440000  H  1  MOL  0.056823 
 17  H6  -2.158000  2.645000  -0.263000  H  1  MOL  0.058561 
 18  H7  -1.717000  1.419000  -1.456000  H  1  MOL  0.058561 
 19  H8  0.491000  0.295000  -1.339000  H  1  MOL  0.103082 
 20  H9  0.188000  -0.335000  0.281000  H  1  MOL  0.103082 
 21  H10  4.437000  0.708000  0.919000  H  1  MOL  0.453419 
 22  H11  4.860000  -0.845000  0.304000  H  1  MOL  0.453419 
 23  H12  -3.208000  1.046000  0.956000  H  1  MOL  0.256949 
 24  H13  2.379000  1.612000  0.176000  H  1  MOL  0.348894 
 25  H14  3.057000  -2.372000  -0.144000  H  1  MOL  0.418998 
 26  H15  1.568000  -1.711000  -0.715000  H  1  MOL  0.418998 
@<TRIPOS>BOND
     1     1     3 1   
     2     1     8 am  
     3     1    11 2   
     4     2     7 2   
     5     2     9 1   
     6     2    10 1   
     7     3    12 1   
     8     3    13 1   
     9     3    14 1   
    10     4     5 1   
    11     4     6 1   
    12     4    15 1   
    13     4    16 1   
    14     5     8 1   
    15     5    17 1   
    16     5    18 1   
    17     6     9 1   
    18     6    19 1   
    19     6    20 1   
    20     7    21 1   
    21     7    22 1   
    22     8    23 1   
    23     9    24 1   
    24    10    25 1   
    25    10    26 1   
@<TRIPOS>SUBSTRUCTURE
     1 MOL         1 TEMP              0 ****  ****    0 ROOT
