@<TRIPOS>MOLECULE
MOL
   26    25     1     0     0
SMALL
No Charge or Current Charge


@<TRIPOS>ATOM
      1 C1          -2.5290    -0.6300    -0.0110 C.2        1 MOL       0.000000
      2 C2           2.8760    -0.3380     0.0760 C.cat      1 MOL       0.000000
      3 C3          -3.6160    -1.4590     0.6430 C.3        1 MOL       0.000000
      4 C4          -0.2170     1.7760     0.0690 C.3        1 MOL       0.000000
      5 C5          -1.6840     1.6680    -0.3900 C.3        1 MOL       0.000000
      6 C6           0.5840     0.5190    -0.2700 C.3        1 MOL       0.000000
      7 N1           4.1460    -0.1520     0.4780 N.3        1 MOL       0.000000
      8 N2          -2.4870     0.6930     0.3420 N.am       1 MOL       0.000000
      9 N3           2.0100     0.6750     0.0810 N.3        1 MOL       0.000000
     10 N4           2.4860    -1.5580    -0.3200 N.3        1 MOL       0.000000
     11 O1          -1.7300    -1.1050    -0.8190 O.2        1 MOL       0.000000
     12 H1          -4.0320    -0.9990     1.5450 H          1 MOL       0.000000
     13 H2          -4.4290    -1.6080    -0.0770 H          1 MOL       0.000000
     14 H3          -3.2140    -2.4440     0.8900 H          1 MOL       0.000000
     15 H4          -0.1770     1.9680     1.1480 H          1 MOL       0.000000
     16 H5           0.2270     2.6430    -0.4400 H          1 MOL       0.000000
     17 H6          -2.1580     2.6450    -0.2630 H          1 MOL       0.000000
     18 H7          -1.7170     1.4190    -1.4560 H          1 MOL       0.000000
     19 H8           0.4910     0.2950    -1.3390 H          1 MOL       0.000000
     20 H9           0.1880    -0.3350     0.2810 H          1 MOL       0.000000
     21 H10          4.4370     0.7080     0.9190 H          1 MOL       0.000000
     22 H11          4.8600    -0.8450     0.3040 H          1 MOL       0.000000
     23 H12         -3.2080     1.0460     0.9560 H          1 MOL       0.000000
     24 H13          2.3790     1.6120     0.1760 H          1 MOL       0.000000
     25 H14          3.0570    -2.3720    -0.1440 H          1 MOL       0.000000
     26 H15          1.5680    -1.7110    -0.7150 H          1 MOL       0.000000
@<TRIPOS>BOND
     1     1     3 1   
     2     1     8 am  
     3     1    11 2   
     4     2     7 2   
     5     2     9 1   
     6     2    10 1   
     7     3    12 1   
     8     3    13 1   
     9     3    14 1   
    10     4     5 1   
    11     4     6 1   
    12     4    15 1   
    13     4    16 1   
    14     5     8 1   
    15     5    17 1   
    16     5    18 1   
    17     6     9 1   
    18     6    19 1   
    19     6    20 1   
    20     7    21 1   
    21     7    22 1   
    22     8    23 1   
    23     9    24 1   
    24    10    25 1   
    25    10    26 1   
@<TRIPOS>SUBSTRUCTURE
     1 MOL         1 TEMP              0 ****  ****    0 ROOT
