@<TRIPOS>MOLECULE
MOL
   25    25     1     0     0
SMALL
No Charge or Current Charge


@<TRIPOS>ATOM
 1  C1  1.482000  1.823000  0.083000  C.ar  1  MOL  -0.166170 
 2  C2  0.326000  1.133000  -0.274000  C.ar  1  MOL  -0.010209 
 3  C3  2.661000  1.124000  0.289000  C.ar  1  MOL  -0.001918 
 4  C4  1.572000  -0.907000  -0.203000  C.ar  1  MOL  -0.005643 
 5  C5  0.363000  -0.267000  -0.420000  C.ar  1  MOL  -0.152224 
 6  C6  -2.884000  0.032000  0.082000  C.2  1  MOL  0.510929 
 7  C7  -4.111000  -0.133000  0.952000  C.3  1  MOL  -0.313908 
 8  C8  3.948000  -0.966000  0.398000  C.3  1  MOL  -0.228958 
 9  C9  -0.875000  -1.052000  -0.832000  C.3  1  MOL  0.298392 
 10  N1  2.692000  -0.220000  0.143000  N.pl3  1  MOL  0.108168 
 11  N2  -1.958000  -0.986000  0.137000  N.am  1  MOL  -0.353167 
 12  O1  -2.704000  1.003000  -0.646000  O.2  1  MOL  -0.514977 
 13  H1  1.482000  2.901000  0.196000  H  1  MOL  0.193287 
 14  H2  -0.615000  1.647000  -0.450000  H  1  MOL  0.203711 
 15  H3  3.593000  1.603000  0.566000  H  1  MOL  0.191433 
 16  H4  1.691000  -1.981000  -0.302000  H  1  MOL  0.190591 
 17  H5  -4.337000  0.822000  1.432000  H  1  MOL  0.111818 
 18  H6  -4.964000  -0.388000  0.312000  H  1  MOL  0.116842 
 19  H7  -4.004000  -0.909000  1.716000  H  1  MOL  0.089295 
 20  H8  3.919000  -1.392000  1.404000  H  1  MOL  0.147173 
 21  H9  4.048000  -1.762000  -0.342000  H  1  MOL  0.147173 
 22  H10  4.793000  -0.284000  0.309000  H  1  MOL  0.147173 
 23  H11  -1.239000  -0.643000  -1.781000  H  1  MOL  0.017121 
 24  H12  -0.613000  -2.102000  -0.994000  H  1  MOL  0.017121 
 25  H13  -2.153000  -1.805000  0.697000  H  1  MOL  0.256949 
@<TRIPOS>BOND
     1     1     2 ar  
     2     1     3 ar  
     3     1    13 1   
     4     2     5 ar  
     5     2    14 1   
     6     3    10 1   
     7     3    15 1   
     8     4     5 ar  
     9     4    10 2   
    10     4    16 1   
    11     5     9 1   
    12     6     7 1   
    13     6    11 am  
    14     6    12 2   
    15     7    17 1   
    16     7    18 1   
    17     7    19 1   
    18     8    10 1   
    19     8    20 1   
    20     8    21 1   
    21     8    22 1   
    22     9    11 1   
    23     9    23 1   
    24     9    24 1   
    25    11    25 1   
@<TRIPOS>SUBSTRUCTURE
     1 MOL         1 TEMP              0 ****  ****    0 ROOT
