@<TRIPOS>MOLECULE
MOL
   25    25     1     0     0
SMALL
No Charge or Current Charge


@<TRIPOS>ATOM
      1 C1           1.4820     1.8230     0.0830 C.ar       1 MOL       0.000000
      2 C2           0.3260     1.1330    -0.2740 C.ar       1 MOL       0.000000
      3 C3           2.6610     1.1240     0.2890 C.ar       1 MOL       0.000000
      4 C4           1.5720    -0.9070    -0.2030 C.ar       1 MOL       0.000000
      5 C5           0.3630    -0.2670    -0.4200 C.ar       1 MOL       0.000000
      6 C6          -2.8840     0.0320     0.0820 C.2        1 MOL       0.000000
      7 C7          -4.1110    -0.1330     0.9520 C.3        1 MOL       0.000000
      8 C8           3.9480    -0.9660     0.3980 C.3        1 MOL       0.000000
      9 C9          -0.8750    -1.0520    -0.8320 C.3        1 MOL       0.000000
     10 N1           2.6920    -0.2200     0.1430 N.pl3      1 MOL       0.000000
     11 N2          -1.9580    -0.9860     0.1370 N.am       1 MOL       0.000000
     12 O1          -2.7040     1.0030    -0.6460 O.2        1 MOL       0.000000
     13 H1           1.4820     2.9010     0.1960 H          1 MOL       0.000000
     14 H2          -0.6150     1.6470    -0.4500 H          1 MOL       0.000000
     15 H3           3.5930     1.6030     0.5660 H          1 MOL       0.000000
     16 H4           1.6910    -1.9810    -0.3020 H          1 MOL       0.000000
     17 H5          -4.3370     0.8220     1.4320 H          1 MOL       0.000000
     18 H6          -4.9640    -0.3880     0.3120 H          1 MOL       0.000000
     19 H7          -4.0040    -0.9090     1.7160 H          1 MOL       0.000000
     20 H8           3.9190    -1.3920     1.4040 H          1 MOL       0.000000
     21 H9           4.0480    -1.7620    -0.3420 H          1 MOL       0.000000
     22 H10          4.7930    -0.2840     0.3090 H          1 MOL       0.000000
     23 H11         -1.2390    -0.6430    -1.7810 H          1 MOL       0.000000
     24 H12         -0.6130    -2.1020    -0.9940 H          1 MOL       0.000000
     25 H13         -2.1530    -1.8050     0.6970 H          1 MOL       0.000000
@<TRIPOS>BOND
     1     1     2 ar  
     2     1     3 ar  
     3     1    13 1   
     4     2     5 ar  
     5     2    14 1   
     6     3    10 1   
     7     3    15 1   
     8     4     5 ar  
     9     4    10 2   
    10     4    16 1   
    11     5     9 1   
    12     6     7 1   
    13     6    11 am  
    14     6    12 2   
    15     7    17 1   
    16     7    18 1   
    17     7    19 1   
    18     8    10 1   
    19     8    20 1   
    20     8    21 1   
    21     8    22 1   
    22     9    11 1   
    23     9    23 1   
    24     9    24 1   
    25    11    25 1   
@<TRIPOS>SUBSTRUCTURE
     1 MOL         1 TEMP              0 ****  ****    0 ROOT
