@<TRIPOS>MOLECULE
MOL
   44    44     1     0     0
SMALL
No Charge or Current Charge


@<TRIPOS>ATOM
 1  C1  3.227000  0.243000  0.010000  C.2  1  MOL  0.596329 
 2  C2  -1.209000  1.691000  -0.306000  C.2  1  MOL  0.636107 
 3  C3  -1.643000  -3.706000  -0.355000  C.3  1  MOL  -0.063087 
 4  C4  -2.300000  -2.603000  -1.196000  C.3  1  MOL  -0.076352 
 5  C5  -1.407000  -3.244000  1.090000  C.3  1  MOL  -0.076352 
 6  C6  -1.484000  -1.299000  -1.159000  C.3  1  MOL  -0.136989 
 7  C7  -0.592000  -1.940000  1.142000  C.3  1  MOL  -0.136989 
 8  C8  -1.258000  -0.832000  0.296000  C.3  1  MOL  0.056076 
 9  C9  5.687000  0.064000  0.031000  C.3  1  MOL  -0.006198 
 10  C10  -2.999000  3.320000  -0.459000  C.3  1  MOL  -0.071473 
 11  C11  -2.814000  1.957000  1.593000  C.3  1  MOL  -0.089282 
 12  C12  2.004000  1.154000  0.275000  C.3  1  MOL  0.681279 
 13  C13  -0.492000  0.512000  0.407000  C.3  1  MOL  0.560318 
 14  N1  4.432000  0.800000  0.190000  N.am  1  MOL  -0.470020 
 15  N2  -2.276000  2.271000  0.271000  N.am  1  MOL  -0.344286 
 16  N3  0.835000  0.430000  -0.307000  N.4  1  MOL  -1.050143 
 17  O1  3.014000  -0.924000  -0.321000  O.2  1  MOL  -0.524049 
 18  O2  -0.762000  2.018000  -1.417000  O.2  1  MOL  -0.560519 
 19  H1  -2.267000  -4.607000  -0.362000  H  1  MOL  0.057868 
 20  H2  -0.683000  -3.989000  -0.810000  H  1  MOL  0.057868 
 21  H3  -2.416000  -2.929000  -2.235000  H  1  MOL  0.052141 
 22  H4  -3.312000  -2.404000  -0.816000  H  1  MOL  0.052141 
 23  H5  -2.374000  -3.082000  1.587000  H  1  MOL  0.052141 
 24  H6  -0.888000  -4.020000  1.663000  H  1  MOL  0.052141 
 25  H7  -0.516000  -1.484000  -1.651000  H  1  MOL  0.050046 
 26  H8  -1.986000  -0.519000  -1.743000  H  1  MOL  0.050046 
 27  H9  -0.486000  -1.602000  2.183000  H  1  MOL  0.050046 
 28  H10  0.425000  -2.143000  0.774000  H  1  MOL  0.050046 
 29  H11  -2.247000  -0.638000  0.733000  H  1  MOL  0.008755 
 30  H12  5.444000  -0.964000  -0.234000  H  1  MOL  0.068972 
 31  H13  6.253000  0.077000  0.966000  H  1  MOL  0.058547 
 32  H14  6.289000  0.512000  -0.765000  H  1  MOL  0.062004 
 33  H15  -4.052000  3.035000  -0.559000  H  1  MOL  0.087465 
 34  H16  -2.555000  3.441000  -1.444000  H  1  MOL  0.084069 
 35  H17  -2.939000  4.264000  0.092000  H  1  MOL  0.088028 
 36  H18  -2.915000  2.882000  2.170000  H  1  MOL  0.094118 
 37  H19  -2.166000  1.280000  2.147000  H  1  MOL  0.067267 
 38  H20  -3.805000  1.497000  1.503000  H  1  MOL  0.084095 
 39  H21  2.086000  2.142000  -0.185000  H  1  MOL  -0.084929 
 40  H22  1.856000  1.273000  1.352000  H  1  MOL  -0.084929 
 41  H23  -0.280000  0.730000  1.456000  H  1  MOL  -0.053673 
 42  H24  4.485000  1.780000  0.438000  H  1  MOL  0.286695 
 43  H25  0.605000  0.846000  -1.239000  H  1  MOL  0.392331 
 44  H26  1.180000  -0.545000  -0.428000  H  1  MOL  0.392331 
@<TRIPOS>BOND
     1     1    12 1   
     2     1    14 am  
     3     1    17 2   
     4     2    13 1   
     5     2    15 am  
     6     2    18 2   
     7     3     4 1   
     8     3     5 1   
     9     3    19 1   
    10     3    20 1   
    11     4     6 1   
    12     4    21 1   
    13     4    22 1   
    14     5     7 1   
    15     5    23 1   
    16     5    24 1   
    17     6     8 1   
    18     6    25 1   
    19     6    26 1   
    20     7     8 1   
    21     7    27 1   
    22     7    28 1   
    23     8    13 1   
    24     8    29 1   
    25     9    14 1   
    26     9    30 1   
    27     9    31 1   
    28     9    32 1   
    29    10    15 1   
    30    10    33 1   
    31    10    34 1   
    32    10    35 1   
    33    11    15 1   
    34    11    36 1   
    35    11    37 1   
    36    11    38 1   
    37    12    16 1   
    38    12    39 1   
    39    12    40 1   
    40    13    16 1   
    41    13    41 1   
    42    14    42 1   
    43    16    43 1   
    44    16    44 1   
@<TRIPOS>SUBSTRUCTURE
     1 MOL         1 TEMP              0 ****  ****    0 ROOT
