@<TRIPOS>MOLECULE
MOL
   44    44     1     0     0
SMALL
No Charge or Current Charge


@<TRIPOS>ATOM
      1 C1           3.2270     0.2430     0.0100 C.2        1 MOL       0.000000
      2 C2          -1.2090     1.6910    -0.3060 C.2        1 MOL       0.000000
      3 C3          -1.6430    -3.7060    -0.3550 C.3        1 MOL       0.000000
      4 C4          -2.3000    -2.6030    -1.1960 C.3        1 MOL       0.000000
      5 C5          -1.4070    -3.2440     1.0900 C.3        1 MOL       0.000000
      6 C6          -1.4840    -1.2990    -1.1590 C.3        1 MOL       0.000000
      7 C7          -0.5920    -1.9400     1.1420 C.3        1 MOL       0.000000
      8 C8          -1.2580    -0.8320     0.2960 C.3        1 MOL       0.000000
      9 C9           5.6870     0.0640     0.0310 C.3        1 MOL       0.000000
     10 C10         -2.9990     3.3200    -0.4590 C.3        1 MOL       0.000000
     11 C11         -2.8140     1.9570     1.5930 C.3        1 MOL       0.000000
     12 C12          2.0040     1.1540     0.2750 C.3        1 MOL       0.000000
     13 C13         -0.4920     0.5120     0.4070 C.3        1 MOL       0.000000
     14 N1           4.4320     0.8000     0.1900 N.am       1 MOL       0.000000
     15 N2          -2.2760     2.2710     0.2710 N.am       1 MOL       0.000000
     16 N3           0.8350     0.4300    -0.3070 N.4        1 MOL       0.000000
     17 O1           3.0140    -0.9240    -0.3210 O.2        1 MOL       0.000000
     18 O2          -0.7620     2.0180    -1.4170 O.2        1 MOL       0.000000
     19 H1          -2.2670    -4.6070    -0.3620 H          1 MOL       0.000000
     20 H2          -0.6830    -3.9890    -0.8100 H          1 MOL       0.000000
     21 H3          -2.4160    -2.9290    -2.2350 H          1 MOL       0.000000
     22 H4          -3.3120    -2.4040    -0.8160 H          1 MOL       0.000000
     23 H5          -2.3740    -3.0820     1.5870 H          1 MOL       0.000000
     24 H6          -0.8880    -4.0200     1.6630 H          1 MOL       0.000000
     25 H7          -0.5160    -1.4840    -1.6510 H          1 MOL       0.000000
     26 H8          -1.9860    -0.5190    -1.7430 H          1 MOL       0.000000
     27 H9          -0.4860    -1.6020     2.1830 H          1 MOL       0.000000
     28 H10          0.4250    -2.1430     0.7740 H          1 MOL       0.000000
     29 H11         -2.2470    -0.6380     0.7330 H          1 MOL       0.000000
     30 H12          5.4440    -0.9640    -0.2340 H          1 MOL       0.000000
     31 H13          6.2530     0.0770     0.9660 H          1 MOL       0.000000
     32 H14          6.2890     0.5120    -0.7650 H          1 MOL       0.000000
     33 H15         -4.0520     3.0350    -0.5590 H          1 MOL       0.000000
     34 H16         -2.5550     3.4410    -1.4440 H          1 MOL       0.000000
     35 H17         -2.9390     4.2640     0.0920 H          1 MOL       0.000000
     36 H18         -2.9150     2.8820     2.1700 H          1 MOL       0.000000
     37 H19         -2.1660     1.2800     2.1470 H          1 MOL       0.000000
     38 H20         -3.8050     1.4970     1.5030 H          1 MOL       0.000000
     39 H21          2.0860     2.1420    -0.1850 H          1 MOL       0.000000
     40 H22          1.8560     1.2730     1.3520 H          1 MOL       0.000000
     41 H23         -0.2800     0.7300     1.4560 H          1 MOL       0.000000
     42 H24          4.4850     1.7800     0.4380 H          1 MOL       0.000000
     43 H25          0.6050     0.8460    -1.2390 H          1 MOL       0.000000
     44 H26          1.1800    -0.5450    -0.4280 H          1 MOL       0.000000
@<TRIPOS>BOND
     1     1    12 1   
     2     1    14 am  
     3     1    17 2   
     4     2    13 1   
     5     2    15 am  
     6     2    18 2   
     7     3     4 1   
     8     3     5 1   
     9     3    19 1   
    10     3    20 1   
    11     4     6 1   
    12     4    21 1   
    13     4    22 1   
    14     5     7 1   
    15     5    23 1   
    16     5    24 1   
    17     6     8 1   
    18     6    25 1   
    19     6    26 1   
    20     7     8 1   
    21     7    27 1   
    22     7    28 1   
    23     8    13 1   
    24     8    29 1   
    25     9    14 1   
    26     9    30 1   
    27     9    31 1   
    28     9    32 1   
    29    10    15 1   
    30    10    33 1   
    31    10    34 1   
    32    10    35 1   
    33    11    15 1   
    34    11    36 1   
    35    11    37 1   
    36    11    38 1   
    37    12    16 1   
    38    12    39 1   
    39    12    40 1   
    40    13    16 1   
    41    13    41 1   
    42    14    42 1   
    43    16    43 1   
    44    16    44 1   
@<TRIPOS>SUBSTRUCTURE
     1 MOL         1 TEMP              0 ****  ****    0 ROOT
