@<TRIPOS>MOLECULE
MOL
   44    44     1     0     0
SMALL
No Charge or Current Charge


@<TRIPOS>ATOM
      1 C1           3.4750    -0.0590     0.1160 C.2        1 MOL       0.000000
      2 C2          -0.9290     1.5410    -0.4650 C.2        1 MOL       0.000000
      3 C3          -3.1850    -2.8370    -0.2250 C.3        1 MOL       0.000000
      4 C4          -2.9340    -2.2850     1.1850 C.3        1 MOL       0.000000
      5 C5          -1.8920    -2.8580    -1.0510 C.3        1 MOL       0.000000
      6 C6          -2.2680    -0.9000     1.1420 C.3        1 MOL       0.000000
      7 C7          -1.2280    -1.4710    -1.1010 C.3        1 MOL       0.000000
      8 C8          -0.9600    -0.9340     0.3210 C.3        1 MOL       0.000000
      9 C9           5.9140    -0.4040     0.2570 C.3        1 MOL       0.000000
     10 C10         -2.4890     3.3690    -0.7520 C.3        1 MOL       0.000000
     11 C11         -2.1190     2.5080     1.5270 C.3        1 MOL       0.000000
     12 C12          2.0850    -0.7350     0.0200 C.3        1 MOL       0.000000
     13 C13         -0.2270     0.4330     0.3670 C.3        1 MOL       0.000000
     14 N1           4.5350    -0.8770     0.1170 N.am       1 MOL       0.000000
     15 N2          -1.8130     2.3850     0.1030 N.am       1 MOL       0.000000
     16 N3           1.1340     0.3650    -0.3060 N.4        1 MOL       0.000000
     17 O1           3.5100     1.1690     0.2110 O.2        1 MOL       0.000000
     18 O2          -0.6280     1.5690    -1.6670 O.2        1 MOL       0.000000
     19 H1          -3.6110    -3.8440    -0.1650 H          1 MOL       0.000000
     20 H2          -3.9320    -2.2110    -0.7340 H          1 MOL       0.000000
     21 H3          -3.8730    -2.2180     1.7450 H          1 MOL       0.000000
     22 H4          -2.2880    -2.9790     1.7420 H          1 MOL       0.000000
     23 H5          -1.1900    -3.5830    -0.6130 H          1 MOL       0.000000
     24 H6          -2.0940    -3.1990    -2.0720 H          1 MOL       0.000000
     25 H7          -2.9620    -0.1800     0.6890 H          1 MOL       0.000000
     26 H8          -2.0650    -0.5540     2.1640 H          1 MOL       0.000000
     27 H9          -0.2990    -1.5330    -1.6840 H          1 MOL       0.000000
     28 H10         -1.8760    -0.7710    -1.6420 H          1 MOL       0.000000
     29 H11         -0.2970    -1.6510     0.8310 H          1 MOL       0.000000
     30 H12          6.5010    -0.6920    -0.6200 H          1 MOL       0.000000
     31 H13          6.3700    -0.8270     1.1560 H          1 MOL       0.000000
     32 H14          5.8910     0.6830     0.3380 H          1 MOL       0.000000
     33 H15         -3.5690     3.3140    -0.5840 H          1 MOL       0.000000
     34 H16         -2.2630     3.1540    -1.7940 H          1 MOL       0.000000
     35 H17         -2.1430     4.3790    -0.5040 H          1 MOL       0.000000
     36 H18         -1.8850     3.5250     1.8620 H          1 MOL       0.000000
     37 H19         -1.5490     1.8060     2.1300 H          1 MOL       0.000000
     38 H20         -3.1850     2.3240     1.7000 H          1 MOL       0.000000
     39 H21          1.8210    -1.1650     0.9890 H          1 MOL       0.000000
     40 H22          2.0310    -1.5180    -0.7400 H          1 MOL       0.000000
     41 H23         -0.0320     0.7170     1.4030 H          1 MOL       0.000000
     42 H24          4.3850    -1.8730     0.0160 H          1 MOL       0.000000
     43 H25          1.6960     1.2210    -0.0830 H          1 MOL       0.000000
     44 H26          0.9120     0.4500    -1.3160 H          1 MOL       0.000000
@<TRIPOS>BOND
     1     1    12 1   
     2     1    14 am  
     3     1    17 2   
     4     2    13 1   
     5     2    15 am  
     6     2    18 2   
     7     3     4 1   
     8     3     5 1   
     9     3    19 1   
    10     3    20 1   
    11     4     6 1   
    12     4    21 1   
    13     4    22 1   
    14     5     7 1   
    15     5    23 1   
    16     5    24 1   
    17     6     8 1   
    18     6    25 1   
    19     6    26 1   
    20     7     8 1   
    21     7    27 1   
    22     7    28 1   
    23     8    13 1   
    24     8    29 1   
    25     9    14 1   
    26     9    30 1   
    27     9    31 1   
    28     9    32 1   
    29    10    15 1   
    30    10    33 1   
    31    10    34 1   
    32    10    35 1   
    33    11    15 1   
    34    11    36 1   
    35    11    37 1   
    36    11    38 1   
    37    12    16 1   
    38    12    39 1   
    39    12    40 1   
    40    13    16 1   
    41    13    41 1   
    42    14    42 1   
    43    16    43 1   
    44    16    44 1   
@<TRIPOS>SUBSTRUCTURE
     1 MOL         1 TEMP              0 ****  ****    0 ROOT
