@<TRIPOS>MOLECULE
*****
 28 28 0 0 0
SMALL
GASTEIGER

@<TRIPOS>ATOM
      1 C           5.6042    0.1523   -3.0460 C.3     1  UNL1        0.0122
      2 C           4.7966   -0.6400   -2.0530 C.2     1  UNL1        0.2102
      3 O           3.8230   -1.3126   -2.3747 O.2     1  UNL1        0.2761
      4 N           5.2597   -0.5323   -0.7618 N.am    1  UNL1        0.3114
      5 C           4.5990   -1.1893    0.3448 C.3     1  UNL1        0.0368
      6 C           5.1407   -2.5800    0.5739 C.ar    1  UNL1        0.0303
      7 C           6.4801   -2.7917    0.9083 C.ar    1  UNL1        0.0563
      8 C           6.9926   -4.0919    1.0286 C.ar    1  UNL1        0.0467
      9 C           6.1826   -5.2273    0.8307 C.ar    1  UNL1        0.0608
     10 C           4.8184   -4.9910    0.5771 C.ar    1  UNL1        0.0467
     11 C           4.3099   -3.6932    0.4377 C.ar    1  UNL1        0.0563
     12 C           6.7445   -6.6080    0.8402 C.2     1  UNL1        0.2662
     13 N           8.0358   -6.8197    1.0043 N.pl3   1  UNL1        0.2497
     14 N           5.9718   -7.6602    0.6530 N.2     1  UNL1        0.2884
     15 H           4.9757   -7.5714    0.5029 H       1  UNL1        0.3009
     16 H           6.3348   -8.6032    0.6342 H       1  UNL1        0.3009
     17 H           5.1934    0.0134   -4.0501 H       1  UNL1        0.0322
     18 H           6.6429   -0.1898   -3.0407 H       1  UNL1        0.0322
     19 H           5.5636    1.2158   -2.7940 H       1  UNL1        0.0322
     20 H           6.0956    0.0061   -0.5806 H       1  UNL1        0.1490
     21 H           3.5206   -1.2188    0.1501 H       1  UNL1        0.0512
     22 H           4.7563   -0.5795    1.2404 H       1  UNL1        0.0512
     23 H           7.1438   -1.9404    1.0523 H       1  UNL1        0.0621
     24 H           8.0499   -4.1680    1.2630 H       1  UNL1        0.0626
     25 H           4.1013   -5.7958    0.4499 H       1  UNL1        0.0626
     26 H           3.2564   -3.5585    0.1899 H       1  UNL1        0.0621
     27 H           8.6897   -6.0600    1.1344 H       1  UNL1        0.2883
     28 H           8.4370   -7.7473    0.9816 H       1  UNL1        0.2883
@<TRIPOS>BOND
     1     1     2    1
     2     2     3    2
     3     2     4   am
     4     4     5    1
     5     5     6    1
     6     6     7   ar
     7     7     8   ar
     8     8     9   ar
     9     9    10   ar
    10    10    11   ar
    11     6    11   ar
    12     9    12    1
    13    12    13    1
    14    12    14    2
    15    14    15    1
    16    14    16    1
    17     1    17    1
    18     1    18    1
    19     1    19    1
    20     4    20    1
    21     5    21    1
    22     5    22    1
    23     7    23    1
    24     8    24    1
    25    10    25    1
    26    11    26    1
    27    13    27    1
    28    13    28    1
