@<TRIPOS>MOLECULE
MOL
   19    18     1     0     0
SMALL
No Charge or Current Charge


@<TRIPOS>ATOM
 1  C1  -2.339000  0.176000  0.000000  C.2  1  MOL  0.510929 
 2  C2  1.359000  -0.155000  0.000000  C.2  1  MOL  0.596329 
 3  C3  -3.407000  -0.908000  -0.000000  C.3  1  MOL  -0.313908 
 4  C4  3.825000  0.019000  -0.000000  C.3  1  MOL  -0.006198 
 5  C5  0.058000  0.653000  0.000000  C.3  1  MOL  -0.203589 
 6  N1  2.492000  0.597000  -0.000000  N.am  1  MOL  -0.470020 
 7  N2  -1.052000  -0.266000  -0.000000  N.am  1  MOL  -0.353167 
 8  O1  -2.616000  1.371000  0.000000  O.2  1  MOL  -0.514977 
 9  O2  1.355000  -1.383000  0.000000  O.2  1  MOL  -0.524049 
 10  H1  -4.043000  -0.778000  0.881000  H  1  MOL  0.111818 
 11  H2  -4.042000  -0.779000  -0.882000  H  1  MOL  0.116842 
 12  H3  -3.001000  -1.925000  0.000000  H  1  MOL  0.089295 
 13  H4  3.712000  -1.065000  -0.000000  H  1  MOL  0.068972 
 14  H5  4.386000  0.321000  0.892000  H  1  MOL  0.058547 
 15  H6  4.386000  0.322000  -0.892000  H  1  MOL  0.062004 
 16  H7  0.021000  1.312000  0.879000  H  1  MOL  0.113764 
 17  H8  0.021000  1.312000  -0.879000  H  1  MOL  0.113764 
 18  H9  2.400000  1.603000  0.000000  H  1  MOL  0.286695 
 19  H10  -0.801000  -1.247000  -0.000000  H  1  MOL  0.256949 
@<TRIPOS>BOND
     1     1     3 1   
     2     1     7 am  
     3     1     8 2   
     4     2     5 1   
     5     2     6 am  
     6     2     9 2   
     7     3    10 1   
     8     3    11 1   
     9     3    12 1   
    10     4     6 1   
    11     4    13 1   
    12     4    14 1   
    13     4    15 1   
    14     5     7 1   
    15     5    16 1   
    16     5    17 1   
    17     6    18 1   
    18     7    19 1   
@<TRIPOS>SUBSTRUCTURE
     1 MOL         1 TEMP              0 ****  ****    0 ROOT
