@<TRIPOS>MOLECULE
*****
 26 26 0 0 0
SMALL
GASTEIGER

@<TRIPOS>ATOM
      1 C           2.2546    1.3980    0.1062 C.3     1  UNL1        0.0788
      2 O           2.4274   -0.0185    0.1130 O.3     1  UNL1        0.4951
      3 C           3.1643   -0.5244    1.1528 C.ar    1  UNL1        0.1204
      4 C           4.0035    0.2322    1.9692 C.ar    1  UNL1        0.0199
      5 C           4.7129   -0.3753    3.0002 C.ar    1  UNL1        0.0580
      6 C           4.6138   -1.7485    3.2048 C.ar    1  UNL1        0.0569
      7 C           3.8088   -2.5453    2.3793 C.ar    1  UNL1        0.0269
      8 C           3.0689   -1.9087    1.3618 C.ar    1  UNL1        0.0153
      9 C           3.7164   -4.0477    2.5528 C.3     1  UNL1        0.0369
     10 N           4.6605   -4.5941    3.5139 N.am    1  UNL1        0.3114
     11 C           4.3412   -4.7577    4.8413 C.2     1  UNL1        0.2102
     12 C           5.4795   -5.2343    5.7062 C.3     1  UNL1        0.0122
     13 O           3.2293   -4.5306    5.3107 O.2     1  UNL1        0.2761
     14 H           1.6664    1.6697   -0.7751 H       1  UNL1        0.0660
     15 H           3.2103    1.9270    0.0239 H       1  UNL1        0.0660
     16 H           1.7027    1.7215    0.9957 H       1  UNL1        0.0660
     17 H           4.1373    1.2983    1.8300 H       1  UNL1        0.0654
     18 H           5.3496    0.2235    3.6449 H       1  UNL1        0.0619
     19 H           5.1791   -2.1830    4.0233 H       1  UNL1        0.0621
     20 H           2.4054   -2.4907    0.7235 H       1  UNL1        0.0657
     21 H           3.9589   -4.5256    1.5965 H       1  UNL1        0.0512
     22 H           2.6985   -4.3316    2.8398 H       1  UNL1        0.0512
     23 H           5.6236   -4.6806    3.2199 H       1  UNL1        0.1490
     24 H           6.3978   -5.3840    5.1321 H       1  UNL1        0.0322
     25 H           5.2008   -6.1838    6.1713 H       1  UNL1        0.0322
     26 H           5.6755   -4.4897    6.4835 H       1  UNL1        0.0322
@<TRIPOS>BOND
     1     1     2    1
     2     2     3    1
     3     3     4   ar
     4     4     5   ar
     5     5     6   ar
     6     6     7   ar
     7     7     8   ar
     8     3     8   ar
     9     7     9    1
    10     9    10    1
    11    10    11   am
    12    11    12    1
    13    11    13    2
    14     1    14    1
    15     1    15    1
    16     1    16    1
    17     4    17    1
    18     5    18    1
    19     6    19    1
    20     8    20    1
    21     9    21    1
    22     9    22    1
    23    10    23    1
    24    12    24    1
    25    12    25    1
    26    12    26    1
