@<TRIPOS>MOLECULE
but-1-ene
   12    11     0     0     0
SMALL
USER_CHARGES

@<TRIPOS>ATOM
      1 C1          4.0768   -1.5617    0.7355 C.3       1 MOL        -0.0881
      2 C2          2.9342   -1.8743   -0.2181 C.3       1 MOL        -0.0543
      3 C3          1.9491   -0.7461   -0.2814 C.2       1 MOL        -0.1624
      4 C4          0.8849   -0.6363    0.5216 C.2       1 MOL        -0.2239
      5 H1          4.7831   -2.3973    0.7664 H         1 MOL         0.0345
      6 H2          3.7080   -1.3925    1.7527 H         1 MOL         0.0345
      7 H3          4.6253   -0.6683    0.4182 H         1 MOL         0.0345
      8 H4          2.4469   -2.8051    0.0956 H         1 MOL         0.0439
      9 H5          3.3360   -2.0474   -1.2230 H         1 MOL         0.0439
     10 H6          2.1132    0.0190   -1.0361 H         1 MOL         0.1173
     11 H7          0.1967    0.1977    0.4413 H         1 MOL         0.1101
     12 H8          0.6872   -1.3890    1.2771 H         1 MOL         0.1101
@<TRIPOS>BOND
     1    1    2 1
     2    2    3 1
     3    3    4 2
     4    1    5 1
     5    1    6 1
     6    1    7 1
     7    2    8 1
     8    2    9 1
     9    3   10 1
    10    4   11 1
    11    4   12 1
