@<TRIPOS>MOLECULE
2-chloropropane
   11    10     0     0     0
SMALL
USER_CHARGES

@<TRIPOS>ATOM
      1 C1          0.8645   -0.5428    0.3972 C.3       1 MOL        -0.1039
      2 C2          1.0062   -0.3025    1.8932 C.3       1 MOL         0.0608
      3 C3          1.1975    1.1739    2.2084 C.3       1 MOL        -0.1039
      4 Cl1         2.3974   -1.2326    2.5189 Cl        1 MOL        -0.2118
      5 H1          0.7274   -1.6080    0.1816 H         1 MOL         0.0484
      6 H2         -0.0071   -0.0099    0.0023 H         1 MOL         0.0484
      7 H3          1.7466   -0.1958   -0.1522 H         1 MOL         0.0484
      8 H4          0.1164   -0.6755    2.4103 H         1 MOL         0.0686
      9 H5          1.2984    1.3354    3.2871 H         1 MOL         0.0484
     10 H6          0.3356    1.7559    1.8651 H         1 MOL         0.0484
     11 H7          2.0910    1.5778    1.7197 H         1 MOL         0.0484
@<TRIPOS>BOND
     1    1    2 1
     2    2    3 1
     3    2    4 1
     4    1    5 1
     5    1    6 1
     6    1    7 1
     7    2    8 1
     8    3    9 1
     9    3   10 1
    10    3   11 1
