@<TRIPOS>MOLECULE
3-methylbut-1-ene
   15    14     0     0     0
SMALL
USER_CHARGES

@<TRIPOS>ATOM
      1 C1          2.1505   -3.7354    0.9777 C.3       1 MOL        -0.0864
      2 C2          2.3688   -2.2470    1.2482 C.3       1 MOL        -0.0417
      3 C3          2.8716   -2.0287    2.6750 C.3       1 MOL        -0.0864
      4 C4          1.0894   -1.4836    1.0237 C.2       1 MOL        -0.1582
      5 C5          0.9540   -0.5005    0.1261 C.2       1 MOL        -0.2244
      6 H1          1.7901   -3.8938   -0.0444 H         1 MOL         0.0350
      7 H2          1.4044   -4.1535    1.6628 H         1 MOL         0.0350
      8 H3          3.0775   -4.3077    1.0996 H         1 MOL         0.0350
      9 H4          3.1429   -1.8877    0.5580 H         1 MOL         0.0485
     10 H5          3.0340   -0.9659    2.8875 H         1 MOL         0.0350
     11 H6          2.1469   -2.4094    3.4027 H         1 MOL         0.0350
     12 H7          3.8187   -2.5540    2.8420 H         1 MOL         0.0350
     13 H8          0.2279   -1.7527    1.6305 H         1 MOL         0.1182
     14 H9          0.0140    0.0244   -0.0039 H         1 MOL         0.1103
     15 H10         1.7918   -0.2063   -0.4964 H         1 MOL         0.1103
@<TRIPOS>BOND
     1    1    2 1
     2    2    3 1
     3    2    4 1
     4    4    5 2
     5    1    6 1
     6    1    7 1
     7    1    8 1
     8    2    9 1
     9    3   10 1
    10    3   11 1
    11    3   12 1
    12    4   13 1
    13    5   14 1
    14    5   15 1
