@<TRIPOS>MOLECULE
1,2,3,4-tetrachloro-5-(3,4-dichlorophenyl)benzene
   22    23     0     0     0
SMALL
USER_CHARGES

@<TRIPOS>ATOM
      1 C1          1.8851   -1.0363   -0.1124 C.ar      1 MOL        -0.0979
      2 C2          2.9210   -1.6309    0.6081 C.ar      1 MOL        -0.1193
      3 C3          2.8783   -1.6520    2.0022 C.ar      1 MOL         0.0247
      4 C4          1.7997   -1.0786    2.6757 C.ar      1 MOL         0.0154
      5 C5          0.7638   -0.4841    1.9551 C.ar      1 MOL        -0.0945
      6 C6          0.8066   -0.4630    0.5610 C.ar      1 MOL        -0.0462
      7 C7         -0.2670    0.1541   -0.1873 C.ar      1 MOL        -0.0253
      8 C8         -0.1522    1.5114   -0.4878 C.ar      1 MOL        -0.0982
      9 C9         -1.1596    2.1541   -1.2073 C.ar      1 MOL         0.0191
     10 C10        -2.2819    1.4395   -1.6263 C.ar      1 MOL         0.0245
     11 C11        -2.3967    0.0822   -1.3258 C.ar      1 MOL         0.0192
     12 C12        -1.3893   -0.5604   -0.6062 C.ar      1 MOL         0.0342
     13 Cl1        -1.5142   -2.2534   -0.2165 Cl        1 MOL        -0.0422
     14 Cl2        -3.7979   -0.8117   -1.8474 Cl        1 MOL        -0.0351
     15 Cl3        -3.5311    2.2553   -2.5230 Cl        1 MOL        -0.0337
     16 Cl4        -0.9432    3.8384   -1.5432 Cl        1 MOL        -0.0508
     17 Cl5         1.6916   -1.0704    4.4011 Cl        1 MOL        -0.0626
     18 Cl6         4.1940   -2.3992    2.8382 Cl        1 MOL        -0.0625
     19 H1          1.9323   -1.0278   -1.1989 H         1 MOL         0.1503
     20 H2          3.7532   -2.0746    0.0671 H         1 MOL         0.1550
     21 H3         -0.0785   -0.0355    2.4784 H         1 MOL         0.1597
     22 H4          0.7251    2.0685   -0.1631 H         1 MOL         0.1662
@<TRIPOS>BOND
     1    1    6 ar
     2    1    2 ar
     3    2    3 ar
     4    3    4 ar
     5    4    5 ar
     6    5    6 ar
     7    6    7 1
     8    7   12 ar
     9    7    8 ar
    10    8    9 ar
    11    9   10 ar
    12   10   11 ar
    13   11   12 ar
    14   12   13 1
    15   11   14 1
    16   10   15 1
    17    9   16 1
    18    4   17 1
    19    3   18 1
    20    1   19 1
    21    2   20 1
    22    5   21 1
    23    8   22 1
