@<TRIPOS>MOLECULE
1-chloropentane
   17    16     0     0     0
SMALL
USER_CHARGES

@<TRIPOS>ATOM
      1 C1         -0.2355   -0.7097   -0.9418 C.3       1 MOL        -0.0928
      2 C2          0.9417   -0.5154   -1.8855 C.3       1 MOL        -0.0787
      3 C3          0.9814    0.9086   -2.4409 C.3       1 MOL        -0.0836
      4 C4          2.1517    1.1572   -3.3996 C.3       1 MOL        -0.0882
      5 C5          2.2425    2.5629   -3.9860 C.3       1 MOL         0.0396
      6 Cl1         0.7946    2.9935   -4.9234 Cl        1 MOL        -0.2014
      7 H1         -0.2579   -1.7309   -0.5481 H         1 MOL         0.0340
      8 H2         -1.1844   -0.5169   -1.4525 H         1 MOL         0.0340
      9 H3         -0.1598   -0.0204   -0.0950 H         1 MOL         0.0340
     10 H4          1.8722   -0.7328   -1.3487 H         1 MOL         0.0386
     11 H5          0.8576   -1.2404   -2.7020 H         1 MOL         0.0386
     12 H6          1.0738    1.6151   -1.6062 H         1 MOL         0.0479
     13 H7          0.0305    1.1405   -2.9343 H         1 MOL         0.0479
     14 H8          2.0842    0.4419   -4.2288 H         1 MOL         0.0520
     15 H9          3.0864    0.9269   -2.8727 H         1 MOL         0.0520
     16 H10         2.3332    3.2960   -3.1785 H         1 MOL         0.0630
     17 H11         3.1141    2.6764   -4.6363 H         1 MOL         0.0630
@<TRIPOS>BOND
     1    1    2 1
     2    2    3 1
     3    3    4 1
     4    4    5 1
     5    5    6 1
     6    1    7 1
     7    1    8 1
     8    1    9 1
     9    2   10 1
    10    2   11 1
    11    3   12 1
    12    3   13 1
    13    4   14 1
    14    4   15 1
    15    5   16 1
    16    5   17 1
