@<TRIPOS>MOLECULE
2-ethylphenol
   19    19     0     0     0
SMALL
USER_CHARGES

@<TRIPOS>ATOM
      1 C1          2.6524    0.2177   -2.1300 C.3       1 MOL        -0.0871
      2 C2          1.9474   -1.0231   -1.6040 C.3       1 MOL        -0.0295
      3 C3          1.8851   -1.0363   -0.1124 C.ar      1 MOL        -0.0991
      4 C4          2.9210   -1.6309    0.6081 C.ar      1 MOL        -0.0986
      5 C5          2.8783   -1.6520    2.0022 C.ar      1 MOL        -0.1622
      6 C6          1.7997   -1.0786    2.6757 C.ar      1 MOL        -0.0955
      7 C7          0.7638   -0.4841    1.9551 C.ar      1 MOL        -0.2113
      8 C8          0.8066   -0.4630    0.5610 C.ar      1 MOL         0.1248
      9 O1         -0.2138    0.1210   -0.1275 O.3       1 MOL        -0.4981
     10 H1          2.6929    0.2179   -3.2245 H         1 MOL         0.0355
     11 H2          3.6791    0.2578   -1.7528 H         1 MOL         0.0355
     12 H3          2.1384    1.1313   -1.8126 H         1 MOL         0.0355
     13 H4          2.4651   -1.9222   -1.9600 H         1 MOL         0.0512
     14 H5          0.9323   -1.0753   -2.0164 H         1 MOL         0.0512
     15 H6          3.7662   -2.0795    0.0929 H         1 MOL         0.1341
     16 H7          3.6849   -2.1142    2.5640 H         1 MOL         0.1327
     17 H8          1.7669   -1.0937    3.7611 H         1 MOL         0.1315
     18 H9         -0.0736   -0.0391    2.4855 H         1 MOL         0.1318
     19 H10        -0.8784    0.4674    0.4884 H         1 MOL         0.4175
@<TRIPOS>BOND
     1    1    2 1
     2    2    3 1
     3    3    8 ar
     4    3    4 ar
     5    4    5 ar
     6    5    6 ar
     7    6    7 ar
     8    7    8 ar
     9    8    9 1
    10    1   10 1
    11    1   11 1
    12    1   12 1
    13    2   13 1
    14    2   14 1
    15    4   15 1
    16    5   16 1
    17    6   17 1
    18    7   18 1
    19    9   19 1
