@<TRIPOS>MOLECULE
1,1,1,2-tetrachloroethane
    8     7     0     0     0
SMALL
USER_CHARGES

@<TRIPOS>ATOM
      1 C1         -0.2264   -0.3196    0.7145 C.3       1 MOL         0.0080
      2 C2          0.1493    0.1837   -0.6821 C.3       1 MOL         0.2421
      3 Cl1         1.9206    0.3779   -0.8496 Cl        1 MOL        -0.1043
      4 Cl2        -0.3946   -1.0246   -1.8938 Cl        1 MOL        -0.1043
      5 Cl3        -0.6548    1.7393   -1.0509 Cl        1 MOL        -0.1043
      6 Cl4         0.2860    0.7750    2.0295 Cl        1 MOL        -0.1349
      7 H1          0.2327   -1.2929    0.9204 H         1 MOL         0.0988
      8 H2         -1.3112   -0.4397    0.8121 H         1 MOL         0.0988
@<TRIPOS>BOND
     1    1    2 1
     2    2    3 1
     3    2    4 1
     4    2    5 1
     5    1    6 1
     6    1    7 1
     7    1    8 1
