@<TRIPOS>MOLECULE
acetaldehyde
    7     6     0     0     0
SMALL
USER_CHARGES

@<TRIPOS>ATOM
      1 C1         -0.5886   -0.9197   -0.0340 C.3       1 MOL        -0.2211
      2 C2         -1.5033   -0.9603    1.1512 C.2       1 MOL         0.5632
      3 O1         -1.4762   -1.8492    1.9958 O.2       1 MOL        -0.5268
      4 H1         -1.0567   -1.4519   -0.8653 H         1 MOL         0.0647
      5 H2         -0.3991    0.1162   -0.3261 H         1 MOL         0.0647
      6 H3          0.3559   -1.4026    0.2267 H         1 MOL         0.0647
      7 H4         -2.2225   -0.1273    1.2270 H         1 MOL        -0.0094
@<TRIPOS>BOND
     1    1    2 1
     2    2    3 2
     3    1    4 1
     4    1    5 1
     5    1    6 1
     6    2    7 1
