@<TRIPOS>MOLECULE
hex-1-yne
   16    15     0     0     0
SMALL
USER_CHARGES

@<TRIPOS>ATOM
      1 C1         -1.8672   -1.1614    1.1538 C.3       1 MOL        -0.0932
      2 C2         -0.3928   -0.8182    1.0126 C.3       1 MOL        -0.0814
      3 C3         -0.1448    0.1090   -0.1772 C.3       1 MOL        -0.0767
      4 C4          1.3383    0.4520   -0.3161 C.3       1 MOL        -0.0027
      5 C5          1.5710    1.3432   -1.4610 C.1       1 MOL        -0.1378
      6 C6          1.7645    2.0714   -2.3957 C.1       1 MOL        -0.1629
      7 H1         -2.0216   -1.8250    2.0104 H         1 MOL         0.0340
      8 H2         -2.2391   -1.6700    0.2586 H         1 MOL         0.0340
      9 H3         -2.4668   -0.2591    1.3107 H         1 MOL         0.0340
     10 H4         -0.0449   -0.3404    1.9359 H         1 MOL         0.0391
     11 H5          0.1815   -1.7438    0.8895 H         1 MOL         0.0391
     12 H6         -0.5029   -0.3697   -1.0978 H         1 MOL         0.0475
     13 H7         -0.7289    1.0302   -0.0538 H         1 MOL         0.0475
     14 H8          1.9218   -0.4672   -0.4442 H         1 MOL         0.0582
     15 H9          1.6956    0.9346    0.6011 H         1 MOL         0.0582
     16 H10         1.9358    2.7177   -3.2246 H         1 MOL         0.1633
@<TRIPOS>BOND
     1    1    2 1
     2    2    3 1
     3    3    4 1
     4    4    5 1
     5    5    6 3
     6    1    7 1
     7    1    8 1
     8    1    9 1
     9    2   10 1
    10    2   11 1
    11    3   12 1
    12    3   13 1
    13    4   14 1
    14    4   15 1
    15    6   16 1
