@<TRIPOS>MOLECULE
2-phenylethanol
   19    19     0     0     0
SMALL
USER_CHARGES

@<TRIPOS>ATOM
      1 C1          1.8851   -1.0363   -0.1124 C.ar      1 MOL        -0.1317
      2 C2          2.9210   -1.6309    0.6081 C.ar      1 MOL        -0.1317
      3 C3          2.8783   -1.6520    2.0022 C.ar      1 MOL        -0.1185
      4 C4          1.7997   -1.0786    2.6757 C.ar      1 MOL        -0.0747
      5 C5          0.7638   -0.4841    1.9551 C.ar      1 MOL        -0.1185
      6 C6          0.8066   -0.4630    0.5610 C.ar      1 MOL        -0.1317
      7 C7          1.7548   -1.1014    4.1663 C.3       1 MOL        -0.0371
      8 C8          1.0574   -2.3416    4.7290 C.3       1 MOL         0.1353
      9 O1          1.7460   -3.5109    4.3041 O.3       1 MOL        -0.5968
     10 H1          1.9176   -1.0210   -1.1980 H         1 MOL         0.1281
     11 H2          3.7604   -2.0783    0.0841 H         1 MOL         0.1292
     12 H3          3.6899   -2.1173    2.5553 H         1 MOL         0.1329
     13 H4         -0.0804   -0.0348    2.4713 H         1 MOL         0.1329
     14 H5         -0.0006   -0.0010    0.0001 H         1 MOL         0.1292
     15 H6          2.7753   -1.0445    4.5761 H         1 MOL         0.0548
     16 H7          1.2277   -0.2073    4.5332 H         1 MOL         0.0548
     17 H8          1.0766   -2.3205    5.8234 H         1 MOL         0.0223
     18 H9          0.0161   -2.4046    4.3963 H         1 MOL         0.0223
     19 H10         1.2709   -4.2680    4.6827 H         1 MOL         0.3988
@<TRIPOS>BOND
     1    1    6 ar
     2    1    2 ar
     3    2    3 ar
     4    3    4 ar
     5    4    5 ar
     6    5    6 ar
     7    4    7 1
     8    7    8 1
     9    8    9 1
    10    1   10 1
    11    2   11 1
    12    3   12 1
    13    5   13 1
    14    6   14 1
    15    7   15 1
    16    7   16 1
    17    8   17 1
    18    8   18 1
    19    9   19 1
