@<TRIPOS>MOLECULE
1,1,1,2,2,2-hexachloroethane
    8     7     0     0     0
SMALL
USER_CHARGES

@<TRIPOS>ATOM
      1 C1          0.2057   -0.3634   -0.6555 C.3       1 MOL         0.2219
      2 C2         -0.2055    0.3634    0.6554 C.3       1 MOL         0.2219
      3 Cl1        -1.2156    1.8228    0.3249 Cl        1 MOL        -0.0740
      4 Cl2        -1.1664   -0.7089    1.7445 Cl        1 MOL        -0.0740
      5 Cl3         1.2331    0.9180    1.5948 Cl        1 MOL        -0.0740
      6 Cl4         1.1666    0.7091   -1.7443 Cl        1 MOL        -0.0740
      7 Cl5        -1.2330   -0.9179   -1.5946 Cl        1 MOL        -0.0740
      8 Cl6         1.2157   -1.8228   -0.3251 Cl        1 MOL        -0.0740
@<TRIPOS>BOND
     1    1    2 1
     2    2    3 1
     3    2    4 1
     4    2    5 1
     5    1    6 1
     6    1    7 1
     7    1    8 1
