@<TRIPOS>MOLECULE
2,3-dichlorodibenzo-p-dioxin
   22    24     0     0     0
SMALL
USER_CHARGES

@<TRIPOS>ATOM
      1 C1         -1.8584    0.7400    0.8000 C.ar      1 MOL        -0.1249
      2 C2         -1.0039   -0.2568    0.3257 C.ar      1 MOL        -0.1248
      3 C3         -1.4367   -1.5819    0.2693 C.ar      1 MOL        -0.1130
      4 C4         -2.7266   -1.9051    0.6889 C.ar      1 MOL         0.0605
      5 C5         -3.5799   -0.9097    1.1626 C.ar      1 MOL         0.0605
      6 C6         -3.1487    0.4152    1.2196 C.ar      1 MOL        -0.1130
      7 O1         -4.8561   -1.1828    1.5855 O.3       1 MOL        -0.2196
      8 C7         -5.2389   -2.4982    1.5123 C.ar      1 MOL         0.0737
      9 C8         -6.5287   -2.8214    1.9320 C.ar      1 MOL        -0.1095
     10 C9         -6.9616   -4.1465    1.8755 C.ar      1 MOL         0.0180
     11 C10        -6.1071   -5.1433    1.4010 C.ar      1 MOL         0.0180
     12 C11        -4.8168   -4.8184    0.9815 C.ar      1 MOL        -0.1095
     13 C12        -4.3856   -3.4936    1.0385 C.ar      1 MOL         0.0737
     14 O2         -3.1093   -3.2205    0.6157 O.3       1 MOL        -0.2196
     15 Cl1        -6.5907   -6.8007    1.3099 Cl        1 MOL        -0.0573
     16 Cl2        -8.5703   -4.4909    2.4081 Cl        1 MOL        -0.0573
     17 H1         -1.5175    1.7705    0.8440 H         1 MOL         0.1421
     18 H2          0.0006   -0.0002    0.0020 H         1 MOL         0.1421
     19 H3         -0.7659   -2.3524   -0.0999 H         1 MOL         0.1568
     20 H4         -3.8078    1.1957    1.5887 H         1 MOL         0.1568
     21 H5         -7.1869   -2.0377    2.2996 H         1 MOL         0.1732
     22 H6         -4.1427   -5.5871    0.6108 H         1 MOL         0.1732
@<TRIPOS>BOND
     1    1    6 ar
     2    1    2 ar
     3    2    3 ar
     4    3    4 ar
     5    4   14 1
     6    4    5 ar
     7    5    6 ar
     8    5    7 1
     9    7    8 1
    10    8   13 ar
    11    8    9 ar
    12    9   10 ar
    13   10   11 ar
    14   11   12 ar
    15   12   13 ar
    16   13   14 1
    17   11   15 1
    18   10   16 1
    19    1   17 1
    20    2   18 1
    21    3   19 1
    22    6   20 1
    23    9   21 1
    24   12   22 1
