@<TRIPOS>MOLECULE
cyclohexanamine
   20    20     0     0     0
SMALL
USER_CHARGES

@<TRIPOS>ATOM
      1 C1          0.5636    0.5439   -0.7663 C.3       1 MOL        -0.0784
      2 C2          0.3506   -0.1159   -2.1257 C.3       1 MOL        -0.0740
      3 C3          1.0408    0.6628   -3.2444 C.3       1 MOL        -0.0934
      4 C4          0.5978    2.1300   -3.2590 C.3       1 MOL         0.1655
      5 C5          0.8244    2.7893   -1.8941 C.3       1 MOL        -0.0934
      6 C6          0.1339    2.0082   -0.7774 C.3       1 MOL        -0.0740
      7 N1          1.3312    2.8600   -4.2912 N.3       1 MOL        -0.9067
      8 H1          1.6233    0.4772   -0.4908 H         1 MOL         0.0392
      9 H2         -0.0003   -0.0001   -0.0002 H         1 MOL         0.0392
     10 H3          0.7339   -1.1423   -2.1012 H         1 MOL         0.0405
     11 H4         -0.7241   -0.1812   -2.3359 H         1 MOL         0.0405
     12 H5          2.1282    0.5956   -3.1068 H         1 MOL         0.0415
     13 H6          0.8129    0.1888   -4.2071 H         1 MOL         0.0415
     14 H7         -0.4669    2.1774   -3.5038 H         1 MOL         0.0569
     15 H8          1.8988    2.8502   -1.6757 H         1 MOL         0.0415
     16 H9          0.4434    3.8179   -1.9023 H         1 MOL         0.0415
     17 H10         0.3651    2.4674    0.1903 H         1 MOL         0.0405
     18 H11        -0.9536    2.0687   -0.9086 H         1 MOL         0.0405
     19 H12         0.9920    2.8130   -5.2264 H         1 MOL         0.3456
     20 H13         2.2393    3.2011   -4.0657 H         1 MOL         0.3456
@<TRIPOS>BOND
     1    1    6 1
     2    1    2 1
     3    2    3 1
     4    3    4 1
     5    4    5 1
     6    5    6 1
     7    4    7 1
     8    1    8 1
     9    1    9 1
    10    2   10 1
    11    2   11 1
    12    3   12 1
    13    3   13 1
    14    4   14 1
    15    5   15 1
    16    5   16 1
    17    6   17 1
    18    6   18 1
    19    7   19 1
    20    7   20 1
