@<TRIPOS>MOLECULE
1-chlorohexane
   20    19     0     0     0
SMALL
USER_CHARGES

@<TRIPOS>ATOM
      1 C1          0.6706   -0.6450    0.5765 C.3       1 MOL        -0.0923
      2 C2          0.0265   -1.0251    1.9002 C.3       1 MOL        -0.0799
      3 C3          0.9415   -1.9260    2.7295 C.3       1 MOL        -0.0791
      4 C4          0.2900   -2.3065    4.0612 C.3       1 MOL        -0.0788
      5 C5          1.2093   -3.2091    4.8896 C.3       1 MOL        -0.0922
      6 C6          0.6054   -3.6178    6.2293 C.3       1 MOL         0.0397
      7 Cl1         1.6985   -4.6642    7.1637 Cl        1 MOL        -0.2013
      8 H1          0.0089   -0.0002   -0.0108 H         1 MOL         0.0338
      9 H2          0.8819   -1.5422   -0.0138 H         1 MOL         0.0338
     10 H3          1.6144   -0.1142    0.7375 H         1 MOL         0.0338
     11 H4         -0.2068   -0.1128    2.4616 H         1 MOL         0.0385
     12 H5         -0.9226   -1.5374    1.7044 H         1 MOL         0.0385
     13 H6          1.8911   -1.4106    2.9194 H         1 MOL         0.0413
     14 H7          1.1747   -2.8346    2.1610 H         1 MOL         0.0413
     15 H8         -0.6573   -2.8254    3.8704 H         1 MOL         0.0418
     16 H9          0.0527   -1.3934    4.6186 H         1 MOL         0.0418
     17 H10         2.1734   -2.7111    5.0514 H         1 MOL         0.0564
     18 H11         1.4190   -4.1217    4.3178 H         1 MOL         0.0564
     19 H12         0.3720   -2.7416    6.8415 H         1 MOL         0.0633
     20 H13        -0.3201   -4.1789    6.0684 H         1 MOL         0.0633
@<TRIPOS>BOND
     1    1    2 1
     2    2    3 1
     3    3    4 1
     4    4    5 1
     5    5    6 1
     6    6    7 1
     7    1    8 1
     8    1    9 1
     9    1   10 1
    10    2   11 1
    11    2   12 1
    12    3   13 1
    13    3   14 1
    14    4   15 1
    15    4   16 1
    16    5   17 1
    17    5   18 1
    18    6   19 1
    19    6   20 1
