@<TRIPOS>MOLECULE
N-methylacetamide
   12    11     0     0     0
SMALL
USER_CHARGES

@<TRIPOS>ATOM
      1 C1          0.9501   -0.2286    0.5090 C.3       1 MOL        -0.1767
      2 C2          0.7453   -0.9428    1.8037 C.2       1 MOL         0.6597
      3 O1          0.1659   -2.0225    1.8130 O.2       1 MOL        -0.6037
      4 N1          1.2543   -0.2751    2.9012 N.am      1 MOL        -0.5838
      5 C3          1.1634   -0.7869    4.2498 C.3       1 MOL         0.0841
      6 H1          0.1175    0.4515    0.2676 H         1 MOL         0.0641
      7 H2          1.8511    0.4056    0.5166 H         1 MOL         0.0641
      8 H3          1.0601   -0.8772   -0.3748 H         1 MOL         0.0641
      9 H4          1.7145    0.6181    2.7531 H         1 MOL         0.3049
     10 H5          2.0378   -1.3998    4.4702 H         1 MOL         0.0410
     11 H6          0.2640   -1.3948    4.3548 H         1 MOL         0.0410
     12 H7          1.1188    0.0415    4.9576 H         1 MOL         0.0410
@<TRIPOS>BOND
     1    1    2 1
     2    2    3 2
     3    2    4 am
     4    4    5 1
     5    1    6 1
     6    1    7 1
     7    1    8 1
     8    4    9 1
     9    5   10 1
    10    5   11 1
    11    5   12 1
