@<TRIPOS>MOLECULE
methanol
    6     5     0     0     0
SMALL
USER_CHARGES

@<TRIPOS>ATOM
      1 C1          0.2832    0.7683    0.7238 C.3       1 MOL         0.1166
      2 O1         -0.3112    2.0013    0.3621 O.3       1 MOL        -0.5985
      3 H1         -0.0653    0.4722    1.7163 H         1 MOL         0.0285
      4 H2          1.3711    0.8735    0.7244 H         1 MOL         0.0285
      5 H3         -0.0069    0.0068   -0.0039 H         1 MOL         0.0285
      6 H4          0.0219    2.2303   -0.5224 H         1 MOL         0.3965
@<TRIPOS>BOND
     1    1    2 1
     2    1    3 1
     3    1    4 1
     4    1    5 1
     5    2    6 1
