@<TRIPOS>MOLECULE
phenyl formate
   15    15     0     0     0
SMALL
USER_CHARGES

@<TRIPOS>ATOM
      1 C1          1.8851   -1.0363   -0.1124 C.ar      1 MOL        -0.1294
      2 C2          2.9210   -1.6309    0.6081 C.ar      1 MOL        -0.1189
      3 C3          2.8783   -1.6520    2.0022 C.ar      1 MOL        -0.1258
      4 C4          1.7997   -1.0786    2.6757 C.ar      1 MOL         0.0962
      5 C5          0.7638   -0.4841    1.9551 C.ar      1 MOL        -0.1258
      6 C6          0.8066   -0.4630    0.5610 C.ar      1 MOL        -0.1189
      7 O1          1.7593   -1.0981    4.0359 O.3       1 MOL        -0.3802
      8 C7          2.3598    0.0145    4.6326 C.2       1 MOL         0.6339
      9 O2          2.8915    0.9564    4.0658 O.2       1 MOL        -0.5104
     10 H1          1.9184   -1.0206   -1.1979 H         1 MOL         0.1348
     11 H2          3.7605   -2.0773    0.0830 H         1 MOL         0.1361
     12 H3          3.6889   -2.1149    2.5584 H         1 MOL         0.1449
     13 H4         -0.0785   -0.0345    2.4737 H         1 MOL         0.1449
     14 H5         -0.0001    0.0001    0.0001 H         1 MOL         0.1361
     15 H6          2.2801   -0.0847    5.7271 H         1 MOL         0.0826
@<TRIPOS>BOND
     1    1    6 ar
     2    1    2 ar
     3    2    3 ar
     4    3    4 ar
     5    4    5 ar
     6    5    6 ar
     7    4    7 1
     8    7    8 1
     9    8    9 2
    10    1   10 1
    11    2   11 1
    12    3   12 1
    13    5   13 1
    14    6   14 1
    15    8   15 1
