@<TRIPOS>MOLECULE
1,2-dichloroethane
    8     7     0     0     0
SMALL
USER_CHARGES

@<TRIPOS>ATOM
      1 C1         -0.5454   -0.5059   -0.1994 C.3       1 MOL         0.0200
      2 C2          0.4803    0.4213    0.4301 C.3       1 MOL         0.0200
      3 Cl1         1.8144    0.7906   -0.6891 Cl        1 MOL        -0.1716
      4 Cl2        -1.2731    0.2056   -1.6599 Cl        1 MOL        -0.1716
      5 H1         -1.3608   -0.6954    0.5049 H         1 MOL         0.0758
      6 H2         -0.1029   -1.4680   -0.4755 H         1 MOL         0.0758
      7 H3          0.0290    1.3678    0.7436 H         1 MOL         0.0758
      8 H4          0.9231   -0.0534    1.3108 H         1 MOL         0.0758
@<TRIPOS>BOND
     1    1    2 1
     2    2    3 1
     3    1    4 1
     4    1    5 1
     5    1    6 1
     6    2    7 1
     7    2    8 1
