@<TRIPOS>MOLECULE
cycloheptanol
   22    22     0     0     0
SMALL
USER_CHARGES

@<TRIPOS>ATOM
      1 C1          0.8256   -0.2293    0.6859 C.3       1 MOL        -0.0740
      2 C2          0.7738   -1.7245    0.9847 C.3       1 MOL        -0.0740
      3 C3          1.4773   -2.2078    2.2490 C.3       1 MOL        -0.0692
      4 C4          2.8095   -1.5314    2.5507 C.3       1 MOL        -0.0910
      5 C5          2.6557   -0.2347    3.3469 C.3       1 MOL         0.1453
      6 C6          2.0672    0.9397    2.5671 C.3       1 MOL        -0.0910
      7 C7          0.7164    0.6798    1.9056 C.3       1 MOL        -0.0692
      8 O1          3.9582    0.1437    3.8016 O.3       1 MOL        -0.6057
      9 H1         -0.0004    0.0001    0.0002 H         1 MOL         0.0374
     10 H2          1.7431    0.0010    0.1301 H         1 MOL         0.0374
     11 H3         -0.2764   -2.0389    1.0442 H         1 MOL         0.0374
     12 H4          1.1910   -2.2559    0.1198 H         1 MOL         0.0374
     13 H5          0.8028   -2.1020    3.1077 H         1 MOL         0.0394
     14 H6          1.6477   -3.2866    2.1399 H         1 MOL         0.0394
     15 H7          3.4153   -2.2230    3.1518 H         1 MOL         0.0490
     16 H8          3.3899   -1.3633    1.6352 H         1 MOL         0.0490
     17 H9          2.0494   -0.4254    4.2403 H         1 MOL         0.0286
     18 H10         1.9586    1.7862    3.2587 H         1 MOL         0.0490
     19 H11         2.7917    1.2841    1.8170 H         1 MOL         0.0490
     20 H12        -0.0095    0.2918    2.6291 H         1 MOL         0.0394
     21 H13         0.3290    1.6485    1.5655 H         1 MOL         0.0394
     22 H14         3.8424    0.9642    4.3024 H         1 MOL         0.3968
@<TRIPOS>BOND
     1    1    7 1
     2    1    2 1
     3    2    3 1
     4    3    4 1
     5    4    5 1
     6    5    6 1
     7    6    7 1
     8    5    8 1
     9    1    9 1
    10    1   10 1
    11    2   11 1
    12    2   12 1
    13    3   13 1
    14    3   14 1
    15    4   15 1
    16    4   16 1
    17    5   17 1
    18    6   18 1
    19    6   19 1
    20    7   20 1
    21    7   21 1
    22    8   22 1
