@<TRIPOS>MOLECULE
propane
   11    10     0     0     0
SMALL
USER_CHARGES

@<TRIPOS>ATOM
      1 C1         -0.5532   -0.2786    0.9029 C.3       1 MOL        -0.0923
      2 C2          0.3849   -0.4425    2.0870 C.3       1 MOL        -0.0814
      3 C3          1.1307    0.8191    2.3889 C.3       1 MOL        -0.0923
      4 H1         -1.0901   -1.2100    0.6961 H         1 MOL         0.0322
      5 H2         -1.2975    0.5005    1.0972 H         1 MOL         0.0322
      6 H3          0.0085   -0.0003    0.0060 H         1 MOL         0.0322
      7 H4         -0.1907   -0.7423    2.9698 H         1 MOL         0.0365
      8 H5          1.1014   -1.2443    1.8766 H         1 MOL         0.0365
      9 H6          1.7955    0.6630    3.2465 H         1 MOL         0.0322
     10 H7          0.4379    1.6294    2.6396 H         1 MOL         0.0322
     11 H8          1.7445    1.1213    1.5338 H         1 MOL         0.0322
@<TRIPOS>BOND
     1    1    2 1
     2    2    3 1
     3    1    4 1
     4    1    5 1
     5    1    6 1
     6    2    7 1
     7    2    8 1
     8    3    9 1
     9    3   10 1
    10    3   11 1
