@<TRIPOS>MOLECULE
1-isopropyl-4-methyl-benzene
   24    24     0     0     0
SMALL
USER_CHARGES

@<TRIPOS>ATOM
      1 C1          1.9305   -1.0133   -1.6029 C.3       1 MOL        -0.0529
      2 C2          1.8851   -1.0363   -0.1124 C.ar      1 MOL        -0.0804
      3 C3          2.9210   -1.6309    0.6081 C.ar      1 MOL        -0.1296
      4 C4          2.8783   -1.6520    2.0022 C.ar      1 MOL        -0.1232
      5 C5          1.7997   -1.0786    2.6757 C.ar      1 MOL        -0.0774
      6 C6          0.7638   -0.4841    1.9551 C.ar      1 MOL        -0.1232
      7 C7          0.8066   -0.4630    0.5610 C.ar      1 MOL        -0.1296
      8 C8          1.7529   -1.1036    4.1660 C.3       1 MOL        -0.0231
      9 C9          0.5463   -1.8957    4.7042 C.3       1 MOL        -0.0875
     10 C10         1.7657    0.3093    4.7796 C.3       1 MOL        -0.0875
     11 H1          2.4383   -0.1076   -1.9481 H         1 MOL         0.0432
     12 H2          2.4630   -1.8877   -1.9914 H         1 MOL         0.0432
     13 H3          0.9202   -1.0356   -2.0251 H         1 MOL         0.0432
     14 H4          3.7650   -2.0800    0.0916 H         1 MOL         0.1299
     15 H5          3.6891   -2.1183    2.5555 H         1 MOL         0.1299
     16 H6         -0.0809   -0.0359    2.4717 H         1 MOL         0.1299
     17 H7         -0.0052    0.0022    0.0080 H         1 MOL         0.1299
     18 H8          2.6519   -1.6141    4.5612 H         1 MOL         0.0492
     19 H9          0.5260   -1.9048    5.7994 H         1 MOL         0.0360
     20 H10         0.5661   -2.9367    4.3637 H         1 MOL         0.0360
     21 H11        -0.3912   -1.4471    4.3568 H         1 MOL         0.0360
     22 H12         1.7305    0.2516    5.8733 H         1 MOL         0.0360
     23 H13         0.9039    0.8983    4.4472 H         1 MOL         0.0360
     24 H14         2.6711    0.8607    4.5032 H         1 MOL         0.0360
@<TRIPOS>BOND
     1    1    2 1
     2    2    7 ar
     3    2    3 ar
     4    3    4 ar
     5    4    5 ar
     6    5    6 ar
     7    6    7 ar
     8    5    8 1
     9    8    9 1
    10    8   10 1
    11    1   11 1
    12    1   12 1
    13    1   13 1
    14    3   14 1
    15    4   15 1
    16    6   16 1
    17    7   17 1
    18    8   18 1
    19    9   19 1
    20    9   20 1
    21    9   21 1
    22   10   22 1
    23   10   23 1
    24   10   24 1
