@<TRIPOS>MOLECULE
2-methylpropan-2-ol
   15    14     0     0     0
SMALL
USER_CHARGES

@<TRIPOS>ATOM
      1 C1         -0.4645   -0.0646    0.9894 C.3       1 MOL        -0.1088
      2 C2          0.5609   -0.3988    2.0719 C.3       1 MOL         0.1455
      3 C3          1.6273    0.6910    2.1567 C.3       1 MOL        -0.1088
      4 C4          1.2036   -1.7604    1.8118 C.3       1 MOL        -0.1088
      5 O1         -0.1082   -0.4451    3.3327 O.3       1 MOL        -0.5994
      6 H1         -1.2317   -0.8445    0.9253 H         1 MOL         0.0427
      7 H2         -0.9578    0.8935    1.1830 H         1 MOL         0.0427
      8 H3          0.0103   -0.0162    0.0027 H         1 MOL         0.0427
      9 H4          2.3651    0.4554    2.9322 H         1 MOL         0.0427
     10 H5          1.1816    1.6524    2.4367 H         1 MOL         0.0427
     11 H6          2.1531    0.8168    1.2047 H         1 MOL         0.0427
     12 H7          1.9391   -2.0003    2.5882 H         1 MOL         0.0427
     13 H8          0.4566   -2.5604    1.7845 H         1 MOL         0.0427
     14 H9          1.7476   -1.7592    0.8603 H         1 MOL         0.0427
     15 H10        -0.7827   -1.1368    3.2589 H         1 MOL         0.3961
@<TRIPOS>BOND
     1    1    2 1
     2    2    3 1
     3    2    4 1
     4    2    5 1
     5    1    6 1
     6    1    7 1
     7    1    8 1
     8    3    9 1
     9    3   10 1
    10    3   11 1
    11    4   12 1
    12    4   13 1
    13    4   14 1
    14    5   15 1
