@<TRIPOS>MOLECULE
methyl formate
    8     7     0     0     0
SMALL
USER_CHARGES

@<TRIPOS>ATOM
      1 C1          0.3499   -1.0344    0.0714 C.3       1 MOL         0.1235
      2 O1          1.5789   -1.1921   -0.6447 O.3       1 MOL        -0.4499
      3 C2          1.5117   -0.9362   -1.9766 C.2       1 MOL         0.6276
      4 O2          0.5335   -0.5918   -2.6212 O.2       1 MOL        -0.5380
      5 H1          0.5111   -1.2625    1.1278 H         1 MOL         0.0517
      6 H2         -0.4048   -1.7055   -0.3463 H         1 MOL         0.0517
      7 H3          0.0106   -0.0006   -0.0282 H         1 MOL         0.0517
      8 H4          2.5112   -1.0903   -2.4120 H         1 MOL         0.0816
@<TRIPOS>BOND
     1    1    2 1
     2    2    3 1
     3    3    4 2
     4    1    5 1
     5    1    6 1
     6    1    7 1
     7    3    8 1
