@<TRIPOS>MOLECULE
methylsulfonylmethane
   11    10     0     0     0
SMALL
USER_CHARGES

@<TRIPOS>ATOM
      1 C1          1.0616    0.2382    0.0927 C.3       1 MOL        -0.3682
      2 S1          1.2749    1.2694    1.5227 S.o2      1 MOL         1.3485
      3 O1          0.9469    0.4790    2.6930 O.2       1 MOL        -0.6547
      4 O2          0.6108    2.5316    1.2629 O.2       1 MOL        -0.6547
      5 C2          3.0251    1.5695    1.5420 C.3       1 MOL        -0.3682
      6 H1          1.3063    0.8246   -0.7943 H         1 MOL         0.1162
      7 H2          1.7323   -0.6177    0.1823 H         1 MOL         0.1162
      8 H3          0.0223   -0.0919    0.0583 H         1 MOL         0.1162
      9 H4          3.2389    2.2013    2.3987 H         1 MOL         0.1162
     10 H5          3.5208    0.6074    1.6272 H         1 MOL         0.1162
     11 H6          3.2819    2.0656    0.6112 H         1 MOL         0.1162
@<TRIPOS>BOND
     1    1    2 1
     2    2    3 2
     3    2    4 2
     4    2    5 1
     5    1    6 1
     6    1    7 1
     7    1    8 1
     8    5    9 1
     9    5   10 1
    10    5   11 1
