@<TRIPOS>MOLECULE
1-cyclohexylethanone
   23    23     0     0     0
SMALL
USER_CHARGES

@<TRIPOS>ATOM
      1 C1          0.0512    0.6947   -1.3301 C.3       1 MOL        -0.2018
      2 C2          0.7296   -0.4754   -0.6707 C.2       1 MOL         0.5669
      3 O1          1.4868   -0.3263    0.2872 O.2       1 MOL        -0.5355
      4 C3          0.4389   -1.8334   -1.2408 C.3       1 MOL        -0.1584
      5 C4          1.0887   -2.9170   -0.3777 C.3       1 MOL        -0.0644
      6 C5          2.5978   -3.0262   -0.5898 C.3       1 MOL        -0.0790
      7 C6          2.9486   -3.1872   -2.0644 C.3       1 MOL        -0.0759
      8 C7          2.3702   -2.0527   -2.9021 C.3       1 MOL        -0.0790
      9 C8          0.8603   -1.9147   -2.7094 C.3       1 MOL        -0.0644
     10 H1          0.6827    1.0778   -2.1356 H         1 MOL         0.0626
     11 H2         -0.9174    0.3807   -1.7266 H         1 MOL         0.0626
     12 H3         -0.1078    1.4901   -0.5968 H         1 MOL         0.0626
     13 H4         -0.6504   -1.9512   -1.1798 H         1 MOL         0.0628
     14 H5          0.8872   -2.7313    0.6843 H         1 MOL         0.0443
     15 H6          0.6300   -3.8836   -0.6225 H         1 MOL         0.0443
     16 H7          3.0980   -2.1374   -0.1875 H         1 MOL         0.0465
     17 H8          2.9829   -3.8843   -0.0269 H         1 MOL         0.0465
     18 H9          4.0376   -3.2147   -2.1833 H         1 MOL         0.0389
     19 H10         2.5626   -4.1465   -2.4306 H         1 MOL         0.0389
     20 H11         2.8627   -1.1113   -2.6301 H         1 MOL         0.0465
     21 H12         2.5895   -2.2283   -3.9615 H         1 MOL         0.0465
     22 H13         0.5073   -1.0336   -3.2590 H         1 MOL         0.0443
     23 H14         0.3717   -2.7858   -3.1648 H         1 MOL         0.0443
@<TRIPOS>BOND
     1    1    2 1
     2    2    3 2
     3    2    4 1
     4    4    9 1
     5    4    5 1
     6    5    6 1
     7    6    7 1
     8    7    8 1
     9    8    9 1
    10    1   10 1
    11    1   11 1
    12    1   12 1
    13    4   13 1
    14    5   14 1
    15    5   15 1
    16    6   16 1
    17    6   17 1
    18    7   18 1
    19    7   19 1
    20    8   20 1
    21    8   21 1
    22    9   22 1
    23    9   23 1
