@<TRIPOS>MOLECULE
hexanoic acid
   20    19     0     0     0
SMALL
USER_CHARGES

@<TRIPOS>ATOM
      1 C1          1.9045    1.9357   -0.3937 C.3       1 MOL        -0.0933
      2 C2          1.7351    0.6234   -1.1427 C.3       1 MOL        -0.0797
      3 C3          1.0009    0.7710   -2.4773 C.3       1 MOL        -0.0801
      4 C4          0.8037   -0.5226   -3.2726 C.3       1 MOL        -0.0738
      5 C5          0.0658   -0.3165   -4.5950 C.3       1 MOL        -0.1732
      6 C6         -0.1094   -1.6145   -5.3503 C.2       1 MOL         0.6222
      7 O1          0.2799   -2.7120   -4.9766 O.2       1 MOL        -0.4839
      8 O2         -0.7603   -1.4194   -6.5272 O.3       1 MOL        -0.5853
      9 H1          2.4346    1.7646    0.5487 H         1 MOL         0.0340
     10 H2          2.4845    2.6527   -0.9831 H         1 MOL         0.0340
     11 H3          0.9379    2.3867   -0.1515 H         1 MOL         0.0340
     12 H4          2.7294    0.2056   -1.3419 H         1 MOL         0.0429
     13 H5          1.2201   -0.1003   -0.5016 H         1 MOL         0.0429
     14 H6          0.0155    1.2166   -2.2922 H         1 MOL         0.0387
     15 H7          1.5509    1.4892   -3.0982 H         1 MOL         0.0387
     16 H8          1.7711   -1.0053   -3.4558 H         1 MOL         0.0614
     17 H9          0.2342   -1.2223   -2.6472 H         1 MOL         0.0614
     18 H10         0.6259    0.3696   -5.2385 H         1 MOL         0.0689
     19 H11        -0.9278    0.1014   -4.3991 H         1 MOL         0.0689
     20 H12        -1.0188   -0.4902   -6.7079 H         1 MOL         0.4213
@<TRIPOS>BOND
     1    1    2 1
     2    2    3 1
     3    3    4 1
     4    4    5 1
     5    5    6 1
     6    6    7 2
     7    6    8 1
     8    1    9 1
     9    1   10 1
    10    1   11 1
    11    2   12 1
    12    2   13 1
    13    3   14 1
    14    3   15 1
    15    4   16 1
    16    4   17 1
    17    5   18 1
    18    5   19 1
    19    8   20 1
