@<TRIPOS>MOLECULE
butan-1-ol
   15    14     0     0     0
SMALL
USER_CHARGES

@<TRIPOS>ATOM
      1 C1          0.3902   -1.0212   -0.0846 C.3       1 MOL        -0.0917
      2 C2         -0.5795   -2.0238    0.5201 C.3       1 MOL        -0.0794
      3 C3         -1.9307   -1.9925   -0.1885 C.3       1 MOL        -0.0854
      4 C4         -2.9047   -2.9950    0.4140 C.3       1 MOL         0.1326
      5 O1         -4.1377   -2.9158   -0.2877 O.3       1 MOL        -0.6028
      6 H1          1.3562   -1.0504    0.4294 H         1 MOL         0.0346
      7 H2          0.5590   -1.2299   -1.1459 H         1 MOL         0.0346
      8 H3         -0.0104   -0.0065    0.0025 H         1 MOL         0.0346
      9 H4         -0.1467   -3.0287    0.4522 H         1 MOL         0.0378
     10 H5         -0.7117   -1.7988    1.5848 H         1 MOL         0.0378
     11 H6         -2.3650   -0.9865   -0.1342 H         1 MOL         0.0548
     12 H7         -1.8040   -2.2065   -1.2572 H         1 MOL         0.0548
     13 H8         -2.5191   -4.0157    0.3260 H         1 MOL         0.0199
     14 H9         -3.0903   -2.7736    1.4699 H         1 MOL         0.0199
     15 H10        -4.7343   -3.5648    0.1194 H         1 MOL         0.3981
@<TRIPOS>BOND
     1    1    2 1
     2    2    3 1
     3    3    4 1
     4    4    5 1
     5    1    6 1
     6    1    7 1
     7    1    8 1
     8    2    9 1
     9    2   10 1
    10    3   11 1
    11    3   12 1
    12    4   13 1
    13    4   14 1
    14    5   15 1
