@<TRIPOS>MOLECULE
1,1,2-trichloroethane
    8     7     0     0     0
SMALL
USER_CHARGES

@<TRIPOS>ATOM
      1 C1         -0.1944    0.6220    0.4658 C.3       1 MOL         0.0095
      2 C2          0.4262   -0.4924   -0.3724 C.3       1 MOL         0.1333
      3 Cl1        -0.0730   -0.3968   -2.0796 Cl        1 MOL        -0.1349
      4 Cl2         0.0549   -2.1052    0.2867 Cl        1 MOL        -0.1349
      5 Cl3        -1.9773    0.6014    0.4732 Cl        1 MOL        -0.1449
      6 H1          0.1335    0.5476    1.5078 H         1 MOL         0.0860
      7 H2          0.1153    1.6033    0.0916 H         1 MOL         0.0860
      8 H3          1.5153   -0.3910   -0.3579 H         1 MOL         0.0999
@<TRIPOS>BOND
     1    1    2 1
     2    2    3 1
     3    2    4 1
     4    1    5 1
     5    1    6 1
     6    1    7 1
     7    2    8 1
