@<TRIPOS>MOLECULE
2-chlorophenol
   13    13     0     0     0
SMALL
USER_CHARGES

@<TRIPOS>ATOM
      1 C1          1.8851   -1.0363   -0.1124 C.ar      1 MOL        -0.0936
      2 C2          2.9210   -1.6309    0.6081 C.ar      1 MOL        -0.1592
      3 C3          2.8783   -1.6520    2.0022 C.ar      1 MOL        -0.0850
      4 C4          1.7997   -1.0786    2.6757 C.ar      1 MOL        -0.0709
      5 C5          0.7638   -0.4841    1.9551 C.ar      1 MOL         0.1371
      6 C6          0.8066   -0.4630    0.5610 C.ar      1 MOL        -0.1518
      7 O1         -0.3023    0.0837    2.5868 O.3       1 MOL        -0.4919
      8 Cl1         1.7729   -1.1191    4.4000 Cl        1 MOL        -0.0964
      9 H1          1.9185   -1.0199   -1.1979 H         1 MOL         0.1395
     10 H2          3.7607   -2.0772    0.0836 H         1 MOL         0.1388
     11 H3          3.6933   -2.1191    2.5493 H         1 MOL         0.1481
     12 H4          0.0031   -0.0016   -0.0069 H         1 MOL         0.1552
     13 H5         -0.2051   -0.0007    3.5480 H         1 MOL         0.4303
@<TRIPOS>BOND
     1    1    6 ar
     2    1    2 ar
     3    2    3 ar
     4    3    4 ar
     5    4    5 ar
     6    5    6 ar
     7    5    7 1
     8    4    8 1
     9    1    9 1
    10    2   10 1
    11    3   11 1
    12    6   12 1
    13    7   13 1
