@<TRIPOS>MOLECULE
1-chloropropane
   11    10     0     0     0
SMALL
USER_CHARGES

@<TRIPOS>ATOM
      1 C1          0.3674    0.5015    0.9011 C.3       1 MOL        -0.0935
      2 C2          0.8898   -0.5275    1.8937 C.3       1 MOL        -0.0947
      3 C3          1.5185    0.0929    3.1358 C.3       1 MOL         0.0404
      4 Cl1         2.1155   -1.1414    4.2688 Cl        1 MOL        -0.2003
      5 H1         -0.0745    0.0132    0.0267 H         1 MOL         0.0378
      6 H2         -0.4063    1.1168    1.3715 H         1 MOL         0.0378
      7 H3          1.1609    1.1718    0.5581 H         1 MOL         0.0378
      8 H4          0.0767   -1.2052    2.1794 H         1 MOL         0.0541
      9 H5          1.6480   -1.1389    1.3902 H         1 MOL         0.0541
     10 H6          0.8000    0.7215    3.6706 H         1 MOL         0.0632
     11 H7          2.3738    0.7144    2.8539 H         1 MOL         0.0632
@<TRIPOS>BOND
     1    1    2 1
     2    2    3 1
     3    3    4 1
     4    1    5 1
     5    1    6 1
     6    1    7 1
     7    2    8 1
     8    2    9 1
     9    3   10 1
    10    3   11 1
