@<TRIPOS>MOLECULE
1,2,3,5-tetrachlorobenzene
   12    12     0     0     0
SMALL
USER_CHARGES

@<TRIPOS>ATOM
      1 C1          1.8851   -1.0363   -0.1124 C.ar      1 MOL        -0.1163
      2 C2          2.9210   -1.6309    0.6081 C.ar      1 MOL         0.0299
      3 C3          2.8783   -1.6520    2.0022 C.ar      1 MOL        -0.1163
      4 C4          1.7997   -1.0786    2.6757 C.ar      1 MOL         0.0305
      5 C5          0.7638   -0.4841    1.9551 C.ar      1 MOL         0.0143
      6 C6          0.8066   -0.4630    0.5610 C.ar      1 MOL         0.0305
      7 Cl1        -0.4406    0.2555   -0.4001 Cl        1 MOL        -0.0525
      8 Cl2        -0.5805    0.2294    2.7943 Cl        1 MOL        -0.0373
      9 Cl3         1.8165   -1.1434    4.4050 Cl        1 MOL        -0.0525
     10 Cl4         4.2518   -2.3389   -0.2230 Cl        1 MOL        -0.0669
     11 H1          1.9220   -1.0207   -1.1999 H         1 MOL         0.1684
     12 H2          3.6878   -2.1170    2.5610 H         1 MOL         0.1684
@<TRIPOS>BOND
     1    1    6 ar
     2    1    2 ar
     3    2    3 ar
     4    3    4 ar
     5    4    5 ar
     6    5    6 ar
     7    6    7 1
     8    5    8 1
     9    4    9 1
    10    2   10 1
    11    1   11 1
    12    3   12 1
