@<TRIPOS>MOLECULE
2-methylpent-1-ene
   18    17     0     0     0
SMALL
USER_CHARGES

@<TRIPOS>ATOM
      1 C1         -2.9333   -0.8839    3.6715 C.3       1 MOL        -0.0928
      2 C2         -1.5053   -0.4733    3.3453 C.3       1 MOL        -0.0770
      3 C3         -1.4664    0.5635    2.2201 C.3       1 MOL        -0.0469
      4 C4         -0.0603    0.9915    1.8730 C.2       1 MOL        -0.1080
      5 C5          0.4425    0.8136    0.6414 C.2       1 MOL        -0.2291
      6 C6          0.7386    1.6590    2.9554 C.3       1 MOL        -0.0626
      7 H1         -2.9545   -1.6252    4.4767 H         1 MOL         0.0332
      8 H2         -3.4277   -1.3137    2.7946 H         1 MOL         0.0332
      9 H3         -3.5128   -0.0138    3.9961 H         1 MOL         0.0332
     10 H4         -1.0391   -0.0708    4.2518 H         1 MOL         0.0408
     11 H5         -0.9337   -1.3634    3.0558 H         1 MOL         0.0408
     12 H6         -1.9639    0.1484    1.3336 H         1 MOL         0.0447
     13 H7         -2.0489    1.4487    2.5052 H         1 MOL         0.0447
     14 H8          1.4483    1.1332    0.3898 H         1 MOL         0.1112
     15 H9         -0.1393    0.3414   -0.1434 H         1 MOL         0.1112
     16 H10         1.2941    0.9127    3.5327 H         1 MOL         0.0411
     17 H11         1.4516    2.3702    2.5276 H         1 MOL         0.0411
     18 H12         0.1018    2.2106    3.6555 H         1 MOL         0.0411
@<TRIPOS>BOND
     1    1    2 1
     2    2    3 1
     3    3    4 1
     4    4    5 2
     5    4    6 1
     6    1    7 1
     7    1    8 1
     8    1    9 1
     9    2   10 1
    10    2   11 1
    11    3   12 1
    12    3   13 1
    13    5   14 1
    14    5   15 1
    15    6   16 1
    16    6   17 1
    17    6   18 1
