@<TRIPOS>MOLECULE
*****
 21 21 0 0 0
SMALL
GASTEIGER

@<TRIPOS>ATOM
      1 C           0.9621   -0.4554    1.4325 C.3     1  UNL1        0.0122
      2 C           2.4474   -0.4458    1.6658 C.2     1  UNL1        0.2102
      3 O           2.9533    0.0873    2.6455 O.2     1  UNL1        0.2761
      4 N           3.1639   -1.0826    0.6791 N.am    1  UNL1        0.3114
      5 C           4.6067   -1.1910    0.7277 C.3     1  UNL1        0.0383
      6 C           5.0728   -2.4660    1.3715 C.ar    1  UNL1        0.0122
      7 C           4.7524   -2.7871    2.6948 C.ar    1  UNL1        0.0542
      8 C           5.2457   -3.9549    3.2684 C.ar    1  UNL1        0.0433
      9 C           6.0626   -4.7656    2.5009 C.ar    1  UNL1        0.0276
     10 N           6.3995   -4.4940    1.2220 N.ar    1  UNL1        0.2629
     11 C           5.9001   -3.3538    0.6906 C.ar    1  UNL1        0.0322
     12 H           0.4584    0.0155    2.2818 H       1  UNL1        0.0322
     13 H           0.6019   -1.4833    1.3378 H       1  UNL1        0.0322
     14 H           0.7278    0.1085    0.5259 H       1  UNL1        0.0322
     15 H           2.6712   -1.5669   -0.0590 H       1  UNL1        0.1490
     16 H           5.0325   -0.3340    1.2614 H       1  UNL1        0.0512
     17 H           4.9532   -1.1354   -0.3106 H       1  UNL1        0.0512
     18 H           4.1307   -2.1231    3.2911 H       1  UNL1        0.0622
     19 H           5.0053   -4.2166    4.2926 H       1  UNL1        0.0633
     20 H           6.4851   -5.6791    2.9090 H       1  UNL1        0.0829
     21 H           6.2067   -3.1698   -0.3359 H       1  UNL1        0.0833
@<TRIPOS>BOND
     1     1     2    1
     2     2     3    2
     3     2     4   am
     4     4     5    1
     5     5     6    1
     6     6     7   ar
     7     7     8   ar
     8     8     9   ar
     9     9    10   ar
    10    10    11   ar
    11     6    11   ar
    12     1    12    1
    13     1    13    1
    14     1    14    1
    15     4    15    1
    16     5    16    1
    17     5    17    1
    18     7    18    1
    19     8    19    1
    20     9    20    1
    21    11    21    1
