@<TRIPOS>MOLECULE
MOL
   31    31     1     0     0
SMALL
No Charge or Current Charge


@<TRIPOS>ATOM
 1  C1  -4.368000  0.186000  0.132000  C.ar  1  MOL  -0.096597 
 2  C2  -3.784000  -0.892000  -0.531000  C.ar  1  MOL  -0.146470 
 3  C3  -3.586000  1.287000  0.496000  C.ar  1  MOL  -0.146470 
 4  C4  -2.417000  -0.874000  -0.827000  C.ar  1  MOL  -0.146263 
 5  C5  -2.222000  1.304000  0.206000  C.ar  1  MOL  -0.146263 
 6  C6  -1.622000  0.225000  -0.459000  C.ar  1  MOL  -0.028411 
 7  C7  2.169000  -0.513000  0.171000  C.2  1  MOL  0.636107 
 8  C8  4.421000  0.097000  -0.480000  C.3  1  MOL  -0.071473 
 9  C9  2.814000  1.896000  0.068000  C.3  1  MOL  -0.089282 
 10  C10  -0.132000  0.211000  -0.733000  C.3  1  MOL  -0.031305 
 11  C11  0.700000  -0.150000  0.528000  C.3  1  MOL  0.451475 
 12  N1  3.062000  0.460000  -0.056000  N.am  1  MOL  -0.344286 
 13  N2  0.166000  -1.436000  1.117000  N.4  1  MOL  -0.907352 
 14  O1  2.413000  -1.726000  0.075000  O.2  1  MOL  -0.560519 
 15  H1  -5.431000  0.178000  0.355000  H  1  MOL  0.157758 
 16  H2  -4.390000  -1.741000  -0.834000  H  1  MOL  0.171316 
 17  H3  -4.041000  2.135000  0.999000  H  1  MOL  0.171316 
 18  H4  -1.978000  -1.696000  -1.389000  H  1  MOL  0.129287 
 19  H5  -1.627000  2.172000  0.482000  H  1  MOL  0.129287 
 20  H6  4.641000  0.568000  -1.443000  H  1  MOL  0.087465 
 21  H7  4.490000  -0.985000  -0.575000  H  1  MOL  0.084069 
 22  H8  5.144000  0.450000  0.263000  H  1  MOL  0.088028 
 23  H9  3.567000  2.337000  0.730000  H  1  MOL  0.094118 
 24  H10  1.831000  2.105000  0.486000  H  1  MOL  0.067267 
 25  H11  2.890000  2.380000  -0.912000  H  1  MOL  0.084095 
 26  H12  0.108000  -0.512000  -1.521000  H  1  MOL  0.048420 
 27  H13  0.215000  1.188000  -1.085000  H  1  MOL  0.048420 
 28  H14  0.606000  0.622000  1.292000  H  1  MOL  0.003369 
 29  H15  -0.815000  -1.592000  0.836000  H  1  MOL  0.420964 
 30  H16  0.225000  -1.463000  2.139000  H  1  MOL  0.420964 
 31  H17  0.825000  -2.162000  0.728000  H  1  MOL  0.420964 
@<TRIPOS>BOND
     1     1     2 ar  
     2     1     3 ar  
     3     1    15 1   
     4     2     4 ar  
     5     2    16 1   
     6     3     5 ar  
     7     3    17 1   
     8     4     6 ar  
     9     4    18 1   
    10     5     6 ar  
    11     5    19 1   
    12     6    10 1   
    13     7    11 1   
    14     7    12 am  
    15     7    14 2   
    16     8    12 1   
    17     8    20 1   
    18     8    21 1   
    19     8    22 1   
    20     9    12 1   
    21     9    23 1   
    22     9    24 1   
    23     9    25 1   
    24    10    11 1   
    25    10    26 1   
    26    10    27 1   
    27    11    13 1   
    28    11    28 1   
    29    13    29 1   
    30    13    30 1   
    31    13    31 1   
@<TRIPOS>SUBSTRUCTURE
     1 MOL         1 TEMP              0 ****  ****    0 ROOT
