@<TRIPOS>MOLECULE
MOL
   31    31     1     0     0
SMALL
No Charge or Current Charge


@<TRIPOS>ATOM
      1 C1          -4.3680     0.1860     0.1320 C.ar       1 MOL       0.000000
      2 C2          -3.7840    -0.8920    -0.5310 C.ar       1 MOL       0.000000
      3 C3          -3.5860     1.2870     0.4960 C.ar       1 MOL       0.000000
      4 C4          -2.4170    -0.8740    -0.8270 C.ar       1 MOL       0.000000
      5 C5          -2.2220     1.3040     0.2060 C.ar       1 MOL       0.000000
      6 C6          -1.6220     0.2250    -0.4590 C.ar       1 MOL       0.000000
      7 C7           2.1690    -0.5130     0.1710 C.2        1 MOL       0.000000
      8 C8           4.4210     0.0970    -0.4800 C.3        1 MOL       0.000000
      9 C9           2.8140     1.8960     0.0680 C.3        1 MOL       0.000000
     10 C10         -0.1320     0.2110    -0.7330 C.3        1 MOL       0.000000
     11 C11          0.7000    -0.1500     0.5280 C.3        1 MOL       0.000000
     12 N1           3.0620     0.4600    -0.0560 N.am       1 MOL       0.000000
     13 N2           0.1660    -1.4360     1.1170 N.4        1 MOL       0.000000
     14 O1           2.4130    -1.7260     0.0750 O.2        1 MOL       0.000000
     15 H1          -5.4310     0.1780     0.3550 H          1 MOL       0.000000
     16 H2          -4.3900    -1.7410    -0.8340 H          1 MOL       0.000000
     17 H3          -4.0410     2.1350     0.9990 H          1 MOL       0.000000
     18 H4          -1.9780    -1.6960    -1.3890 H          1 MOL       0.000000
     19 H5          -1.6270     2.1720     0.4820 H          1 MOL       0.000000
     20 H6           4.6410     0.5680    -1.4430 H          1 MOL       0.000000
     21 H7           4.4900    -0.9850    -0.5750 H          1 MOL       0.000000
     22 H8           5.1440     0.4500     0.2630 H          1 MOL       0.000000
     23 H9           3.5670     2.3370     0.7300 H          1 MOL       0.000000
     24 H10          1.8310     2.1050     0.4860 H          1 MOL       0.000000
     25 H11          2.8900     2.3800    -0.9120 H          1 MOL       0.000000
     26 H12          0.1080    -0.5120    -1.5210 H          1 MOL       0.000000
     27 H13          0.2150     1.1880    -1.0850 H          1 MOL       0.000000
     28 H14          0.6060     0.6220     1.2920 H          1 MOL       0.000000
     29 H15         -0.8150    -1.5920     0.8360 H          1 MOL       0.000000
     30 H16          0.2250    -1.4630     2.1390 H          1 MOL       0.000000
     31 H17          0.8250    -2.1620     0.7280 H          1 MOL       0.000000
@<TRIPOS>BOND
     1     1     2 ar  
     2     1     3 ar  
     3     1    15 1   
     4     2     4 ar  
     5     2    16 1   
     6     3     5 ar  
     7     3    17 1   
     8     4     6 ar  
     9     4    18 1   
    10     5     6 ar  
    11     5    19 1   
    12     6    10 1   
    13     7    11 1   
    14     7    12 am  
    15     7    14 2   
    16     8    12 1   
    17     8    20 1   
    18     8    21 1   
    19     8    22 1   
    20     9    12 1   
    21     9    23 1   
    22     9    24 1   
    23     9    25 1   
    24    10    11 1   
    25    10    26 1   
    26    10    27 1   
    27    11    13 1   
    28    11    28 1   
    29    13    29 1   
    30    13    30 1   
    31    13    31 1   
@<TRIPOS>SUBSTRUCTURE
     1 MOL         1 TEMP              0 ****  ****    0 ROOT
