@<TRIPOS>MOLECULE
MOL
   18    18     1     0     0
SMALL
No Charge or Current Charge


@<TRIPOS>ATOM
      1 N1          -2.3100    -1.0550     0.4620 N.3        1 MOL       0.000000
      2 C1          -1.6450    -0.0000    -0.0000 C.2        1 MOL       0.000000
      3 N2          -2.3100     1.0550    -0.4620 N.3        1 MOL       0.000000
      4 H1          -1.8150     1.7850    -0.9570 H          1 MOL       0.000000
      5 H2          -3.3180     1.1410    -0.3990 H          1 MOL       0.000000
      6 C2          -0.1780    -0.0000    -0.0000 C.ar       1 MOL       0.000000
      7 C3           0.5250    -1.1940    -0.2490 C.ar       1 MOL       0.000000
      8 C4           1.9160    -1.1870    -0.2520 C.ar       1 MOL       0.000000
      9 C5           2.6110     0.0000     0.0000 C.ar       1 MOL       0.000000
     10 C6           1.9160     1.1870     0.2520 C.ar       1 MOL       0.000000
     11 C7           0.5250     1.1940     0.2490 C.ar       1 MOL       0.000000
     12 H3          -3.3180    -1.1410     0.4000 H          1 MOL       0.000000
     13 H4          -1.8150    -1.7850     0.9570 H          1 MOL       0.000000
     14 H5          -0.0090    -2.1090    -0.4880 H          1 MOL       0.000000
     15 H6           2.4580    -2.1030    -0.4610 H          1 MOL       0.000000
     16 H7           3.6970     0.0000     0.0000 H          1 MOL       0.000000
     17 H8           2.4580     2.1030     0.4610 H          1 MOL       0.000000
     18 H9          -0.0090     2.1090     0.4880 H          1 MOL       0.000000
@<TRIPOS>BOND
     1     1     2 2   
     2     1    12 1   
     3     1    13 1   
     4     2     3 1   
     5     2     6 1   
     6     3     4 1   
     7     3     5 1   
     8     6     7 ar  
     9     6    11 ar  
    10     7     8 ar  
    11     7    14 1   
    12     8     9 ar  
    13     8    15 1   
    14     9    10 ar  
    15     9    16 1   
    16    10    11 ar  
    17    10    17 1   
    18    11    18 1   
@<TRIPOS>SUBSTRUCTURE
     1 MOL         1 TEMP              0 ****  ****    0 ROOT
