@<TRIPOS>MOLECULE
MOL
   18    18     1     0     0
SMALL
No Charge or Current Charge


@<TRIPOS>ATOM
 1  N1  -2.310000  -1.055000  0.462000  N.3  1  MOL  -0.752446 
 2  C1  -1.645000  -0.000000  -0.000000  C.2  1  MOL  0.588359 
 3  N2  -2.310000  1.055000  -0.462000  N.3  1  MOL  -0.752450 
 4  H1  -1.815000  1.785000  -0.957000  H  1  MOL  0.427465 
 5  H2  -3.318000  1.141000  -0.399000  H  1  MOL  0.427465 
 6  C2  -0.178000  -0.000000  -0.000000  C.ar  1  MOL  -0.046383 
 7  C3  0.525000  -1.194000  -0.249000  C.ar  1  MOL  -0.108027 
 8  C4  1.916000  -1.187000  -0.252000  C.ar  1  MOL  -0.142563 
 9  C5  2.611000  0.000000  0.000000  C.ar  1  MOL  -0.054598 
 10  C6  1.916000  1.187000  0.252000  C.ar  1  MOL  -0.142563 
 11  C7  0.525000  1.194000  0.249000  C.ar  1  MOL  -0.108027 
 12  H3  -3.318000  -1.141000  0.400000  H  1  MOL  0.427461 
 13  H4  -1.815000  -1.785000  0.957000  H  1  MOL  0.427461 
 14  H5  -0.009000  -2.109000  -0.488000  H  1  MOL  0.142139 
 15  H6  2.458000  -2.103000  -0.461000  H  1  MOL  0.177258 
 16  H7  3.697000  0.000000  0.000000  H  1  MOL  0.170052 
 17  H8  2.458000  2.103000  0.461000  H  1  MOL  0.177258 
 18  H9  -0.009000  2.109000  0.488000  H  1  MOL  0.142139 
@<TRIPOS>BOND
     1     1     2 2   
     2     1    12 1   
     3     1    13 1   
     4     2     3 1   
     5     2     6 1   
     6     3     4 1   
     7     3     5 1   
     8     6     7 ar  
     9     6    11 ar  
    10     7     8 ar  
    11     7    14 1   
    12     8     9 ar  
    13     8    15 1   
    14     9    10 ar  
    15     9    16 1   
    16    10    11 ar  
    17    10    17 1   
    18    11    18 1   
@<TRIPOS>SUBSTRUCTURE
     1 MOL         1 TEMP              0 ****  ****    0 ROOT
