@<TRIPOS>MOLECULE
MOL
   26    26     1     0     0
SMALL
No Charge or Current Charge


@<TRIPOS>ATOM
 1  C1  -2.423000  0.631000  0.322000  C.ar  1  MOL  -0.204918 
 2  C2  -2.530000  -0.757000  0.386000  C.ar  1  MOL  -0.071483 
 3  C3  -0.254000  -0.944000  -0.424000  C.ar  1  MOL  -0.057063 
 4  C4  -1.243000  1.251000  -0.104000  C.ar  1  MOL  0.036065 
 5  C5  -0.148000  0.452000  -0.483000  C.ar  1  MOL  0.000503 
 6  C6  -1.437000  -1.534000  0.009000  C.ar  1  MOL  -0.060896 
 7  C7  3.166000  -0.045000  0.057000  C.2  1  MOL  0.510929 
 8  C8  4.120000  -0.064000  1.241000  C.3  1  MOL  -0.313908 
 9  C9  1.178000  1.042000  -0.939000  C.3  1  MOL  -0.127512 
 10  C10  -1.170000  2.766000  -0.170000  C.3  1  MOL  0.222997 
 11  N1  2.232000  0.959000  0.071000  N.am  1  MOL  -0.353167 
 12  O1  3.240000  -0.867000  -0.849000  O.2  1  MOL  -0.514977 
 13  O2  -2.346000  3.326000  0.392000  O.3  1  MOL  -0.606664 
 14  Cl1  -1.555000  -3.289000  0.078000  Cl  1  MOL  -0.117604 
 15  H1  -3.264000  1.251000  0.612000  H  1  MOL  0.158589 
 16  H2  -3.448000  -1.228000  0.719000  H  1  MOL  0.147127 
 17  H3  0.593000  -1.557000  -0.716000  H  1  MOL  0.131755 
 18  H4  4.030000  0.808000  1.896000  H  1  MOL  0.111818 
 19  H5  3.935000  -0.969000  1.829000  H  1  MOL  0.116842 
 20  H6  5.145000  -0.124000  0.864000  H  1  MOL  0.089295 
 21  H7  1.556000  0.485000  -1.800000  H  1  MOL  0.111143 
 22  H8  1.070000  2.087000  -1.245000  H  1  MOL  0.111143 
 23  H9  -0.276000  3.121000  0.371000  H  1  MOL  0.012916 
 24  H10  -1.050000  3.085000  -1.219000  H  1  MOL  0.012916 
 25  H11  2.129000  1.509000  0.912000  H  1  MOL  0.256949 
 26  H12  -2.312000  4.284000  0.254000  H  1  MOL  0.397203 
@<TRIPOS>BOND
     1     1     2 ar  
     2     1     4 ar  
     3     1    15 1   
     4     2     6 ar  
     5     2    16 1   
     6     3     5 ar  
     7     3     6 ar  
     8     3    17 1   
     9     4     5 ar  
    10     4    10 1   
    11     5     9 1   
    12     6    14 1   
    13     7     8 1   
    14     7    11 am  
    15     7    12 2   
    16     8    18 1   
    17     8    19 1   
    18     8    20 1   
    19     9    11 1   
    20     9    21 1   
    21     9    22 1   
    22    10    13 1   
    23    10    23 1   
    24    10    24 1   
    25    11    25 1   
    26    13    26 1   
@<TRIPOS>SUBSTRUCTURE
     1 MOL         1 TEMP              0 ****  ****    0 ROOT
