@<TRIPOS>MOLECULE
MOL
   26    26     1     0     0
SMALL
No Charge or Current Charge


@<TRIPOS>ATOM
      1 C1          -2.4230     0.6310     0.3220 C.ar       1 MOL       0.000000
      2 C2          -2.5300    -0.7570     0.3860 C.ar       1 MOL       0.000000
      3 C3          -0.2540    -0.9440    -0.4240 C.ar       1 MOL       0.000000
      4 C4          -1.2430     1.2510    -0.1040 C.ar       1 MOL       0.000000
      5 C5          -0.1480     0.4520    -0.4830 C.ar       1 MOL       0.000000
      6 C6          -1.4370    -1.5340     0.0090 C.ar       1 MOL       0.000000
      7 C7           3.1660    -0.0450     0.0570 C.2        1 MOL       0.000000
      8 C8           4.1200    -0.0640     1.2410 C.3        1 MOL       0.000000
      9 C9           1.1780     1.0420    -0.9390 C.3        1 MOL       0.000000
     10 C10         -1.1700     2.7660    -0.1700 C.3        1 MOL       0.000000
     11 N1           2.2320     0.9590     0.0710 N.am       1 MOL       0.000000
     12 O1           3.2400    -0.8670    -0.8490 O.2        1 MOL       0.000000
     13 O2          -2.3460     3.3260     0.3920 O.3        1 MOL       0.000000
     14 Cl1         -1.5550    -3.2890     0.0780 Cl         1 MOL       0.000000
     15 H1          -3.2640     1.2510     0.6120 H          1 MOL       0.000000
     16 H2          -3.4480    -1.2280     0.7190 H          1 MOL       0.000000
     17 H3           0.5930    -1.5570    -0.7160 H          1 MOL       0.000000
     18 H4           4.0300     0.8080     1.8960 H          1 MOL       0.000000
     19 H5           3.9350    -0.9690     1.8290 H          1 MOL       0.000000
     20 H6           5.1450    -0.1240     0.8640 H          1 MOL       0.000000
     21 H7           1.5560     0.4850    -1.8000 H          1 MOL       0.000000
     22 H8           1.0700     2.0870    -1.2450 H          1 MOL       0.000000
     23 H9          -0.2760     3.1210     0.3710 H          1 MOL       0.000000
     24 H10         -1.0500     3.0850    -1.2190 H          1 MOL       0.000000
     25 H11          2.1290     1.5090     0.9120 H          1 MOL       0.000000
     26 H12         -2.3120     4.2840     0.2540 H          1 MOL       0.000000
@<TRIPOS>BOND
     1     1     2 ar  
     2     1     4 ar  
     3     1    15 1   
     4     2     6 ar  
     5     2    16 1   
     6     3     5 ar  
     7     3     6 ar  
     8     3    17 1   
     9     4     5 ar  
    10     4    10 1   
    11     5     9 1   
    12     6    14 1   
    13     7     8 1   
    14     7    11 am  
    15     7    12 2   
    16     8    18 1   
    17     8    19 1   
    18     8    20 1   
    19     9    11 1   
    20     9    21 1   
    21     9    22 1   
    22    10    13 1   
    23    10    23 1   
    24    10    24 1   
    25    11    25 1   
    26    13    26 1   
@<TRIPOS>SUBSTRUCTURE
     1 MOL         1 TEMP              0 ****  ****    0 ROOT
