@<TRIPOS>MOLECULE
*****
 28 27 0 0 0
SMALL
GASTEIGER

@<TRIPOS>ATOM
      1 C           4.9197   -0.7342   -3.5375 C.3     1  UNL1        0.0124
      2 C           4.5599   -1.3241   -2.1972 C.2     1  UNL1        0.2128
      3 O           3.6674   -2.1726   -2.1216 O.2     1  UNL1        0.2759
      4 N           5.2219   -0.8379   -1.0763 N.am    1  UNL1        0.2935
      5 C           6.3280    0.1110   -1.1336 C.3     1  UNL1        0.0039
      6 C           4.7366   -1.2996    0.2469 C.3     1  UNL1        0.0992
      7 H           3.6523   -1.2778    0.1879 H       1  UNL1        0.0594
      8 C           5.0920   -0.3659    1.4116 C.3     1  UNL1        0.0379
      9 C           5.2616   -2.7197    0.6018 C.2     1  UNL1        0.2353
     10 O           6.4787   -2.8899    0.7532 O.2     1  UNL1        0.2736
     11 N           4.3570   -3.7666    0.7839 N.am    1  UNL1        0.3061
     12 C           2.9333   -3.7416    0.4695 C.3     1  UNL1        0.0029
     13 C           4.8667   -5.0808    1.1496 C.3     1  UNL1        0.0029
     14 H           4.3302   -1.2233   -4.3193 H       1  UNL1        0.0323
     15 H           5.9750   -0.8943   -3.7686 H       1  UNL1        0.0323
     16 H           4.6761    0.3323   -3.5447 H       1  UNL1        0.0323
     17 H           6.6450    0.3350   -2.1523 H       1  UNL1        0.0429
     18 H           7.1850   -0.2954   -0.5906 H       1  UNL1        0.0429
     19 H           6.0033    1.0512   -0.6783 H       1  UNL1        0.0429
     20 H           4.6793   -0.7469    2.3518 H       1  UNL1        0.0252
     21 H           4.6804    0.6348    1.2431 H       1  UNL1        0.0252
     22 H           6.1744   -0.2691    1.5503 H       1  UNL1        0.0252
     23 H           2.5343   -2.7578    0.2446 H       1  UNL1        0.0428
     24 H           2.3834   -4.1339    1.3305 H       1  UNL1        0.0428
     25 H           2.7553   -4.3896   -0.3944 H       1  UNL1        0.0428
     26 H           5.9331   -5.0731    1.3853 H       1  UNL1        0.0428
     27 H           4.6927   -5.7732    0.3195 H       1  UNL1        0.0428
     28 H           4.3181   -5.4334    2.0292 H       1  UNL1        0.0428
@<TRIPOS>BOND
     1     1     2    1
     2     2     3    2
     3     2     4   am
     4     4     5    1
     5     6     8    1
     6     6     9    1
     7     9    10    2
     8     9    11   am
     9    11    12    1
    10    11    13    1
    11     6     7    1
    12     6     4    1
    13     1    14    1
    14     1    15    1
    15     1    16    1
    16     5    17    1
    17     5    18    1
    18     5    19    1
    19     8    20    1
    20     8    21    1
    21     8    22    1
    22    12    23    1
    23    12    24    1
    24    12    25    1
    25    13    26    1
    26    13    27    1
    27    13    28    1
