@<TRIPOS>MOLECULE
MOL
   35    34     1     0     0
SMALL
No Charge or Current Charge


@<TRIPOS>ATOM
      1 C1           1.3720    -0.8450    -0.5810 C.2        1 MOL       0.000000
      2 C2           0.9650     2.9490     1.2450 C.3        1 MOL       0.000000
      3 C3           2.9290     1.8830     0.0460 C.3        1 MOL       0.000000
      4 C4           2.7150    -2.7840    -0.0020 C.3        1 MOL       0.000000
      5 C5           0.9300    -2.1260     1.5470 C.3        1 MOL       0.000000
      6 C6          -3.4400    -1.4470    -0.2340 C.3        1 MOL       0.000000
      7 C7           0.5320     1.5560    -0.8620 C.3        1 MOL       0.000000
      8 C8           0.2680     0.1770    -0.2280 C.3        1 MOL       0.000000
      9 C9           1.5210     2.4790    -0.1100 C.3        1 MOL       0.000000
     10 N1          -0.9860    -0.4590    -0.7210 N.3        1 MOL       0.000000
     11 N2           1.6750    -1.8200     0.3340 N.am       1 MOL       0.000000
     12 O1           1.9360    -0.7720    -1.6710 O.2        1 MOL       0.000000
     13 O2          -3.0810     1.1260    -0.7240 O.2        1 MOL       0.000000
     14 O3          -2.1430     0.1680     1.4460 O.2        1 MOL       0.000000
     15 S1          -2.4390     0.0300     0.0140 S.o2       1 MOL       0.000000
     16 H1           0.8700     2.1220     1.9600 H          1 MOL       0.000000
     17 H2           1.6310     3.6930     1.6980 H          1 MOL       0.000000
     18 H3          -0.0260     3.4050     1.1360 H          1 MOL       0.000000
     19 H4           2.9310     1.0290     0.7350 H          1 MOL       0.000000
     20 H5           3.3270     1.5340    -0.9120 H          1 MOL       0.000000
     21 H6           3.6170     2.6310     0.4570 H          1 MOL       0.000000
     22 H7           3.3880    -2.9140     0.8540 H          1 MOL       0.000000
     23 H8           3.2730    -2.4150    -0.8610 H          1 MOL       0.000000
     24 H9           2.2790    -3.7620    -0.2510 H          1 MOL       0.000000
     25 H10          0.5480    -3.1550     1.4960 H          1 MOL       0.000000
     26 H11          0.0790    -1.4640     1.6870 H          1 MOL       0.000000
     27 H12          1.5820    -2.0530     2.4270 H          1 MOL       0.000000
     28 H13         -4.4220    -1.2350     0.1950 H          1 MOL       0.000000
     29 H14         -3.5360    -1.6380    -1.3050 H          1 MOL       0.000000
     30 H15         -2.9660    -2.2870     0.2730 H          1 MOL       0.000000
     31 H16          0.8930     1.3890    -1.8830 H          1 MOL       0.000000
     32 H17         -0.4310     2.0750    -0.9320 H          1 MOL       0.000000
     33 H18          0.1500     0.2840     0.8490 H          1 MOL       0.000000
     34 H19          1.6160     3.3720    -0.7450 H          1 MOL       0.000000
     35 H20         -1.0660    -0.3610    -1.7340 H          1 MOL       0.000000
@<TRIPOS>BOND
     1     1     8 1   
     2     1    11 am  
     3     1    12 2   
     4     2     9 1   
     5     2    16 1   
     6     2    17 1   
     7     2    18 1   
     8     3     9 1   
     9     3    19 1   
    10     3    20 1   
    11     3    21 1   
    12     4    11 1   
    13     4    22 1   
    14     4    23 1   
    15     4    24 1   
    16     5    11 1   
    17     5    25 1   
    18     5    26 1   
    19     5    27 1   
    20     6    15 1   
    21     6    28 1   
    22     6    29 1   
    23     6    30 1   
    24     7     8 1   
    25     7     9 1   
    26     7    31 1   
    27     7    32 1   
    28     8    10 1   
    29     8    33 1   
    30     9    34 1   
    31    10    15 1   
    32    10    35 1   
    33    13    15 2   
    34    14    15 2   
@<TRIPOS>SUBSTRUCTURE
     1 MOL         1 TEMP              0 ****  ****    0 ROOT
