@<TRIPOS>MOLECULE
MOL
   35    34     1     0     0
SMALL
No Charge or Current Charge


@<TRIPOS>ATOM
 1  C1  1.372000  -0.845000  -0.581000  C.2  1  MOL  0.636107 
 2  C2  0.965000  2.949000  1.245000  C.3  1  MOL  -0.195297 
 3  C3  2.929000  1.883000  0.046000  C.3  1  MOL  -0.195297 
 4  C4  2.715000  -2.784000  -0.002000  C.3  1  MOL  -0.071473 
 5  C5  0.930000  -2.126000  1.547000  C.3  1  MOL  -0.089282 
 6  C6  -3.440000  -1.447000  -0.234000  C.3  1  MOL  -0.412669 
 7  C7  0.532000  1.556000  -0.862000  C.3  1  MOL  -0.083867 
 8  C8  0.268000  0.177000  -0.228000  C.3  1  MOL  -0.206990 
 9  C9  1.521000  2.479000  -0.110000  C.3  1  MOL  0.213216 
 10  N1  -0.986000  -0.459000  -0.721000  N.3  1  MOL  -0.497998 
 11  N2  1.675000  -1.820000  0.334000  N.am  1  MOL  -0.344286 
 12  O1  1.936000  -0.772000  -1.671000  O.2  1  MOL  -0.560519 
 13  O2  -3.081000  1.126000  -0.724000  O.2  1  MOL  -0.518639 
 14  O3  -2.143000  0.168000  1.446000  O.2  1  MOL  -0.504040 
 15  S1  -2.439000  0.030000  0.014000  S.o2  1  MOL  0.947437 
 16  H1  0.870000  2.122000  1.960000  H  1  MOL  0.045643 
 17  H2  1.631000  3.693000  1.698000  H  1  MOL  0.045643 
 18  H3  -0.026000  3.405000  1.136000  H  1  MOL  0.045643 
 19  H4  2.931000  1.029000  0.735000  H  1  MOL  0.045643 
 20  H5  3.327000  1.534000  -0.912000  H  1  MOL  0.045643 
 21  H6  3.617000  2.631000  0.457000  H  1  MOL  0.045643 
 22  H7  3.388000  -2.914000  0.854000  H  1  MOL  0.087465 
 23  H8  3.273000  -2.415000  -0.861000  H  1  MOL  0.084069 
 24  H9  2.279000  -3.762000  -0.251000  H  1  MOL  0.088028 
 25  H10  0.548000  -3.155000  1.496000  H  1  MOL  0.094118 
 26  H11  0.079000  -1.464000  1.687000  H  1  MOL  0.067267 
 27  H12  1.582000  -2.053000  2.427000  H  1  MOL  0.084095 
 28  H13  -4.422000  -1.235000  0.195000  H  1  MOL  0.187843 
 29  H14  -3.536000  -1.638000  -1.305000  H  1  MOL  0.155917 
 30  H15  -2.966000  -2.287000  0.273000  H  1  MOL  0.144151 
 31  H16  0.893000  1.389000  -1.883000  H  1  MOL  0.066366 
 32  H17  -0.431000  2.075000  -0.932000  H  1  MOL  0.066366 
 33  H18  0.150000  0.284000  0.849000  H  1  MOL  0.157555 
 34  H19  1.616000  3.372000  -0.745000  H  1  MOL  -0.019955 
 35  H20  -1.066000  -0.361000  -1.734000  H  1  MOL  0.346457 
@<TRIPOS>BOND
     1     1     8 1   
     2     1    11 am  
     3     1    12 2   
     4     2     9 1   
     5     2    16 1   
     6     2    17 1   
     7     2    18 1   
     8     3     9 1   
     9     3    19 1   
    10     3    20 1   
    11     3    21 1   
    12     4    11 1   
    13     4    22 1   
    14     4    23 1   
    15     4    24 1   
    16     5    11 1   
    17     5    25 1   
    18     5    26 1   
    19     5    27 1   
    20     6    15 1   
    21     6    28 1   
    22     6    29 1   
    23     6    30 1   
    24     7     8 1   
    25     7     9 1   
    26     7    31 1   
    27     7    32 1   
    28     8    10 1   
    29     8    33 1   
    30     9    34 1   
    31    10    15 1   
    32    10    35 1   
    33    13    15 2   
    34    14    15 2   
@<TRIPOS>SUBSTRUCTURE
     1 MOL         1 TEMP              0 ****  ****    0 ROOT
