@<TRIPOS>MOLECULE
MOL
   24    23     1     0     0
SMALL
No Charge or Current Charge


@<TRIPOS>ATOM
 1  C1  0.307000  -0.636000  -0.084000  C.2  1  MOL  0.636107 
 2  C2  -1.295000  2.111000  -0.626000  C.3  1  MOL  -0.376067 
 3  C3  2.668000  -0.341000  -0.523000  C.3  1  MOL  -0.071473 
 4  C4  1.557000  1.222000  1.035000  C.3  1  MOL  -0.089282 
 5  C5  -1.872000  0.706000  -0.423000  C.3  1  MOL  -0.025979 
 6  C6  -1.061000  -0.202000  0.524000  C.3  1  MOL  0.494320 
 7  N1  1.420000  0.078000  0.133000  N.am  1  MOL  -0.344286 
 8  N2  -1.788000  -1.535000  0.618000  N.4  1  MOL  -0.904181 
 9  O1  0.259000  -1.659000  -0.788000  O.2  1  MOL  -0.560519 
 10  H1  -0.305000  2.082000  -1.091000  H  1  MOL  0.131063 
 11  H2  -1.226000  2.663000  0.317000  H  1  MOL  0.131063 
 12  H3  -1.953000  2.677000  -1.290000  H  1  MOL  0.131063 
 13  H4  3.084000  0.505000  -1.079000  H  1  MOL  0.087465 
 14  H5  2.460000  -1.165000  -1.202000  H  1  MOL  0.084069 
 15  H6  3.392000  -0.660000  0.234000  H  1  MOL  0.088028 
 16  H7  2.302000  0.991000  1.803000  H  1  MOL  0.094118 
 17  H8  0.617000  1.472000  1.524000  H  1  MOL  0.067267 
 18  H9  1.897000  2.099000  0.474000  H  1  MOL  0.084095 
 19  H10  -2.888000  0.795000  -0.014000  H  1  MOL  0.037559 
 20  H11  -1.952000  0.197000  -1.392000  H  1  MOL  0.037559 
 21  H12  -1.000000  0.212000  1.530000  H  1  MOL  -0.010368 
 22  H13  -2.796000  -1.453000  0.457000  H  1  MOL  0.426126 
 23  H14  -1.636000  -2.016000  1.511000  H  1  MOL  0.426126 
 24  H15  -1.313000  -2.093000  -0.147000  H  1  MOL  0.426126 
@<TRIPOS>BOND
     1     1     6 1   
     2     1     7 am  
     3     1     9 2   
     4     2     5 1   
     5     2    10 1   
     6     2    11 1   
     7     2    12 1   
     8     3     7 1   
     9     3    13 1   
    10     3    14 1   
    11     3    15 1   
    12     4     7 1   
    13     4    16 1   
    14     4    17 1   
    15     4    18 1   
    16     5     6 1   
    17     5    19 1   
    18     5    20 1   
    19     6     8 1   
    20     6    21 1   
    21     8    22 1   
    22     8    23 1   
    23     8    24 1   
@<TRIPOS>SUBSTRUCTURE
     1 MOL         1 TEMP              0 ****  ****    0 ROOT
