@<TRIPOS>MOLECULE
MOL
   24    23     1     0     0
SMALL
No Charge or Current Charge


@<TRIPOS>ATOM
      1 C1           0.3070    -0.6360    -0.0840 C.2        1 MOL       0.000000
      2 C2          -1.2950     2.1110    -0.6260 C.3        1 MOL       0.000000
      3 C3           2.6680    -0.3410    -0.5230 C.3        1 MOL       0.000000
      4 C4           1.5570     1.2220     1.0350 C.3        1 MOL       0.000000
      5 C5          -1.8720     0.7060    -0.4230 C.3        1 MOL       0.000000
      6 C6          -1.0610    -0.2020     0.5240 C.3        1 MOL       0.000000
      7 N1           1.4200     0.0780     0.1330 N.am       1 MOL       0.000000
      8 N2          -1.7880    -1.5350     0.6180 N.4        1 MOL       0.000000
      9 O1           0.2590    -1.6590    -0.7880 O.2        1 MOL       0.000000
     10 H1          -0.3050     2.0820    -1.0910 H          1 MOL       0.000000
     11 H2          -1.2260     2.6630     0.3170 H          1 MOL       0.000000
     12 H3          -1.9530     2.6770    -1.2900 H          1 MOL       0.000000
     13 H4           3.0840     0.5050    -1.0790 H          1 MOL       0.000000
     14 H5           2.4600    -1.1650    -1.2020 H          1 MOL       0.000000
     15 H6           3.3920    -0.6600     0.2340 H          1 MOL       0.000000
     16 H7           2.3020     0.9910     1.8030 H          1 MOL       0.000000
     17 H8           0.6170     1.4720     1.5240 H          1 MOL       0.000000
     18 H9           1.8970     2.0990     0.4740 H          1 MOL       0.000000
     19 H10         -2.8880     0.7950    -0.0140 H          1 MOL       0.000000
     20 H11         -1.9520     0.1970    -1.3920 H          1 MOL       0.000000
     21 H12         -1.0000     0.2120     1.5300 H          1 MOL       0.000000
     22 H13         -2.7960    -1.4530     0.4570 H          1 MOL       0.000000
     23 H14         -1.6360    -2.0160     1.5110 H          1 MOL       0.000000
     24 H15         -1.3130    -2.0930    -0.1470 H          1 MOL       0.000000
@<TRIPOS>BOND
     1     1     6 1   
     2     1     7 am  
     3     1     9 2   
     4     2     5 1   
     5     2    10 1   
     6     2    11 1   
     7     2    12 1   
     8     3     7 1   
     9     3    13 1   
    10     3    14 1   
    11     3    15 1   
    12     4     7 1   
    13     4    16 1   
    14     4    17 1   
    15     4    18 1   
    16     5     6 1   
    17     5    19 1   
    18     5    20 1   
    19     6     8 1   
    20     6    21 1   
    21     8    22 1   
    22     8    23 1   
    23     8    24 1   
@<TRIPOS>SUBSTRUCTURE
     1 MOL         1 TEMP              0 ****  ****    0 ROOT
