@<TRIPOS>MOLECULE
MOL
   22    22     1     0     0
SMALL
No Charge or Current Charge


@<TRIPOS>ATOM
      1 C1           2.7580     1.2740     0.4160 C.ar       1 MOL       0.000000
      2 C2           1.4870     1.7200     0.0430 C.ar       1 MOL       0.000000
      3 C3           3.0590    -0.0870     0.4070 C.ar       1 MOL       0.000000
      4 C4           0.7970    -0.5620    -0.3640 C.ar       1 MOL       0.000000
      5 C5           0.5000     0.8090    -0.3490 C.ar       1 MOL       0.000000
      6 C6           2.0650    -0.9790     0.0140 C.ar       1 MOL       0.000000
      7 C7          -2.7030    -0.2250     0.0010 C.2        1 MOL       0.000000
      8 C8          -3.6930    -0.5370     1.1140 C.3        1 MOL       0.000000
      9 C9          -0.8860     1.2830    -0.7460 C.3        1 MOL       0.000000
     10 N1          -1.9340     0.8920     0.1930 N.am       1 MOL       0.000000
     11 O1          -2.6140    -0.9260    -1.0010 O.2        1 MOL       0.000000
     12 F1           2.3490    -2.2990    -0.0030 F          1 MOL       0.000000
     13 H1           3.5180     1.9900     0.7170 H          1 MOL       0.000000
     14 H2           1.2640     2.7840     0.0510 H          1 MOL       0.000000
     15 H3           4.0360    -0.4630     0.6910 H          1 MOL       0.000000
     16 H4           0.0520    -1.2900    -0.6720 H          1 MOL       0.000000
     17 H5          -4.6880    -0.6460     0.6750 H          1 MOL       0.000000
     18 H6          -3.4270    -1.4990     1.5640 H          1 MOL       0.000000
     19 H7          -3.7310     0.2250     1.8990 H          1 MOL       0.000000
     20 H8          -0.8960     2.3740    -0.8450 H          1 MOL       0.000000
     21 H9          -1.1750     0.8520    -1.7090 H          1 MOL       0.000000
     22 H10         -1.9540     1.3450     1.0960 H          1 MOL       0.000000
@<TRIPOS>BOND
     1     1     2 ar  
     2     1     3 ar  
     3     1    13 1   
     4     2     5 ar  
     5     2    14 1   
     6     3     6 ar  
     7     3    15 1   
     8     4     5 ar  
     9     4     6 ar  
    10     4    16 1   
    11     5     9 1   
    12     6    12 1   
    13     7     8 1   
    14     7    10 am  
    15     7    11 2   
    16     8    17 1   
    17     8    18 1   
    18     8    19 1   
    19     9    10 1   
    20     9    20 1   
    21     9    21 1   
    22    10    22 1   
@<TRIPOS>SUBSTRUCTURE
     1 MOL         1 TEMP              0 ****  ****    0 ROOT
