@<TRIPOS>MOLECULE
MOL
   26    25     1     0     0
SMALL
No Charge or Current Charge


@<TRIPOS>ATOM
      1 C1           3.2740    -0.3190     0.1980 C.2        1 MOL       0.000000
      2 C2          -3.3960    -0.2590     0.0070 C.cat      1 MOL       0.000000
      3 C3           4.7010    -0.6700    -0.1770 C.3        1 MOL       0.000000
      4 C4           0.2700     0.2480    -0.4960 C.3        1 MOL       0.000000
      5 C5           1.3970     1.2240    -0.1080 C.3        1 MOL       0.000000
      6 C6          -1.0750     0.6660     0.1000 C.3        1 MOL       0.000000
      7 N1          -4.2240    -1.2350    -0.4040 N.3        1 MOL       0.000000
      8 N2           2.7020     0.7200    -0.4950 N.am       1 MOL       0.000000
      9 N3          -2.0790    -0.3860    -0.1510 N.3        1 MOL       0.000000
     10 N4          -3.9130     0.8490     0.5550 N.3        1 MOL       0.000000
     11 O1           2.6480    -0.9130     1.0700 O.2        1 MOL       0.000000
     12 H1           5.0500    -0.1730    -1.0870 H          1 MOL       0.000000
     13 H2           5.3620    -0.3920     0.6510 H          1 MOL       0.000000
     14 H3           4.7770    -1.7530    -0.3050 H          1 MOL       0.000000
     15 H4           0.5510    -0.7320    -0.0960 H          1 MOL       0.000000
     16 H5           0.1920     0.1730    -1.5860 H          1 MOL       0.000000
     17 H6           1.2500     2.1990    -0.5840 H          1 MOL       0.000000
     18 H7           1.3830     1.3690     0.9800 H          1 MOL       0.000000
     19 H8          -1.4360     1.5970    -0.3540 H          1 MOL       0.000000
     20 H9          -0.9710     0.8200     1.1820 H          1 MOL       0.000000
     21 H10         -3.8940    -1.9950    -0.9820 H          1 MOL       0.000000
     22 H11         -5.1830    -1.2780    -0.0890 H          1 MOL       0.000000
     23 H12          3.2540     1.2430    -1.1600 H          1 MOL       0.000000
     24 H13         -1.7190    -1.3120    -0.3500 H          1 MOL       0.000000
     25 H14         -4.9010     1.0500     0.5020 H          1 MOL       0.000000
     26 H15         -3.3290     1.5130     1.0430 H          1 MOL       0.000000
@<TRIPOS>BOND
     1     1     3 1   
     2     1     8 am  
     3     1    11 2   
     4     2     7 2   
     5     2     9 1   
     6     2    10 1   
     7     3    12 1   
     8     3    13 1   
     9     3    14 1   
    10     4     5 1   
    11     4     6 1   
    12     4    15 1   
    13     4    16 1   
    14     5     8 1   
    15     5    17 1   
    16     5    18 1   
    17     6     9 1   
    18     6    19 1   
    19     6    20 1   
    20     7    21 1   
    21     7    22 1   
    22     8    23 1   
    23     9    24 1   
    24    10    25 1   
    25    10    26 1   
@<TRIPOS>SUBSTRUCTURE
     1 MOL         1 TEMP              0 ****  ****    0 ROOT
