@<TRIPOS>MOLECULE
MOL
   26    25     1     0     0
SMALL
No Charge or Current Charge


@<TRIPOS>ATOM
 1  C1  3.274000  -0.319000  0.198000  C.2  1  MOL  0.510929 
 2  C2  -3.396000  -0.259000  0.007000  C.cat  1  MOL  0.702063 
 3  C3  4.701000  -0.670000  -0.177000  C.3  1  MOL  -0.313908 
 4  C4  0.270000  0.248000  -0.496000  C.3  1  MOL  -0.062678 
 5  C5  1.397000  1.224000  -0.108000  C.3  1  MOL  0.062985 
 6  C6  -1.075000  0.666000  0.100000  C.3  1  MOL  -0.083611 
 7  N1  -4.224000  -1.235000  -0.404000  N.3  1  MOL  -0.887803 
 8  N2  2.702000  0.720000  -0.495000  N.am  1  MOL  -0.353167 
 9  N3  -2.079000  -0.386000  -0.151000  N.3  1  MOL  -0.410242 
 10  N4  -3.913000  0.849000  0.555000  N.3  1  MOL  -0.755157 
 11  O1  2.648000  -0.913000  1.070000  O.2  1  MOL  -0.514977 
 12  H1  5.050000  -0.173000  -1.087000  H  1  MOL  0.111818 
 13  H2  5.362000  -0.392000  0.651000  H  1  MOL  0.116842 
 14  H3  4.777000  -1.753000  -0.305000  H  1  MOL  0.089295 
 15  H4  0.551000  -0.732000  -0.096000  H  1  MOL  0.056823 
 16  H5  0.192000  0.173000  -1.586000  H  1  MOL  0.056823 
 17  H6  1.250000  2.199000  -0.584000  H  1  MOL  0.058561 
 18  H7  1.383000  1.369000  0.980000  H  1  MOL  0.058561 
 19  H8  -1.436000  1.597000  -0.354000  H  1  MOL  0.103082 
 20  H9  -0.971000  0.820000  1.182000  H  1  MOL  0.103082 
 21  H10  -3.894000  -1.995000  -0.982000  H  1  MOL  0.453419 
 22  H11  -5.183000  -1.278000  -0.089000  H  1  MOL  0.453419 
 23  H12  3.254000  1.243000  -1.160000  H  1  MOL  0.256949 
 24  H13  -1.719000  -1.312000  -0.350000  H  1  MOL  0.348894 
 25  H14  -4.901000  1.050000  0.502000  H  1  MOL  0.418998 
 26  H15  -3.329000  1.513000  1.043000  H  1  MOL  0.418998 
@<TRIPOS>BOND
     1     1     3 1   
     2     1     8 am  
     3     1    11 2   
     4     2     7 2   
     5     2     9 1   
     6     2    10 1   
     7     3    12 1   
     8     3    13 1   
     9     3    14 1   
    10     4     5 1   
    11     4     6 1   
    12     4    15 1   
    13     4    16 1   
    14     5     8 1   
    15     5    17 1   
    16     5    18 1   
    17     6     9 1   
    18     6    19 1   
    19     6    20 1   
    20     7    21 1   
    21     7    22 1   
    22     8    23 1   
    23     9    24 1   
    24    10    25 1   
    25    10    26 1   
@<TRIPOS>SUBSTRUCTURE
     1 MOL         1 TEMP              0 ****  ****    0 ROOT
