@<TRIPOS>MOLECULE
*****
 33 32 0 0 0
SMALL
GASTEIGER

@<TRIPOS>ATOM
      1 C           4.9221   -1.8979    7.1087 C.3     1  UNL1        0.0001
      2 N           4.7932   -1.2719    5.8205 N.am    1  UNL1        0.3183
      3 C           5.0503   -1.9703    4.6588 C.2     1  UNL1        0.2148
      4 O           5.4012   -3.1477    4.6354 O.2     1  UNL1        0.2758
      5 C           4.8122   -1.1425    3.4111 C.3     1  UNL1        0.0494
      6 C           5.1709   -1.8817    2.1149 C.3     1  UNL1        0.1127
      7 H           4.8715   -1.2402    1.2768 H       1  UNL1        0.0577
      8 N           4.4955   -3.2253    1.9689 N.3     1  UNL1        0.1824
      9 S           2.8100   -3.2280    1.9579 S.O2    1  UNL1        0.0272
     10 C           2.4368   -4.9560    1.7457 C.3     1  UNL1        0.0705
     11 O           2.3518   -2.8350    3.2727 O.2     1  UNL1        0.1585
     12 O           2.3906   -2.5126    0.7758 O.2     1  UNL1        0.1585
     13 C           6.7104   -2.0281    2.0168 C.2     1  UNL1        0.2342
     14 O           7.4449   -1.5795    2.9032 O.2     1  UNL1        0.2738
     15 N           7.2510   -2.6374    0.8887 N.am    1  UNL1        0.3063
     16 C           8.6848   -2.8837    0.8339 C.3     1  UNL1        0.0029
     17 C           6.4983   -3.0230   -0.2938 C.3     1  UNL1        0.0029
     18 H           4.6486   -1.1761    7.8818 H       1  UNL1        0.0426
     19 H           5.9568   -2.2219    7.2464 H       1  UNL1        0.0426
     20 H           4.2592   -2.7661    7.1562 H       1  UNL1        0.0426
     21 H           4.5013   -0.3043    5.7702 H       1  UNL1        0.1484
     22 H           5.4056   -0.2228    3.4939 H       1  UNL1        0.0379
     23 H           3.7635   -0.8279    3.3992 H       1  UNL1        0.0379
     24 H           4.8943   -3.8839    2.6508 H       1  UNL1        0.1485
     25 H           2.6970   -5.4892    2.6625 H       1  UNL1        0.0479
     26 H           2.9908   -5.3446    0.8908 H       1  UNL1        0.0479
     27 H           1.3628   -5.0458    1.5623 H       1  UNL1        0.0479
     28 H           9.2068   -2.5478    1.7337 H       1  UNL1        0.0428
     29 H           9.1011   -2.3570   -0.0299 H       1  UNL1        0.0428
     30 H           8.8497   -3.9592    0.7173 H       1  UNL1        0.0428
     31 H           5.4544   -2.7166   -0.2612 H       1  UNL1        0.0428
     32 H           6.5565   -4.1092   -0.4045 H       1  UNL1        0.0428
     33 H           6.9547   -2.5416   -1.1636 H       1  UNL1        0.0428
@<TRIPOS>BOND
     1     1     2    1
     2     2     3   am
     3     3     4    2
     4     3     5    1
     5     6     8    1
     6     8     9    1
     7     9    10    1
     8     9    11    2
     9     9    12    2
    10     6    13    1
    11    13    14    2
    12    13    15   am
    13    15    16    1
    14    15    17    1
    15     6     7    1
    16     6     5    1
    17     1    18    1
    18     1    19    1
    19     1    20    1
    20     2    21    1
    21     5    22    1
    22     5    23    1
    23     8    24    1
    24    10    25    1
    25    10    26    1
    26    10    27    1
    27    16    28    1
    28    16    29    1
    29    16    30    1
    30    17    31    1
    31    17    32    1
    32    17    33    1
