@<TRIPOS>MOLECULE
*****
 23 22 0 0 0
SMALL
GASTEIGER

@<TRIPOS>ATOM
      1 C           1.1580    0.8154    1.0470 C.3     1  UNL1        0.0029
      2 N           2.6116    0.8161    1.0320 N.am    1  UNL1        0.3065
      3 C           3.2954    2.0858    0.8525 C.3     1  UNL1        0.0029
      4 C           3.2617   -0.3949    1.2501 C.2     1  UNL1        0.2306
      5 O           2.6404   -1.4296    1.5126 O.2     1  UNL1        0.2742
      6 C           4.7864   -0.4309    1.1630 C.3     1  UNL1        0.0935
      7 N           5.3625   -0.7699    2.4793 N.3     1  UNL1        0.1860
      8 S           7.0379   -0.8888    2.5430 S.O2    1  UNL1        0.0270
      9 C           7.5285    0.8232    2.4912 C.3     1  UNL1        0.0705
     10 O           7.3641   -1.4174    3.8466 O.2     1  UNL1        0.1585
     11 O           7.4802   -1.5351    1.3279 O.2     1  UNL1        0.1585
     12 H           0.7563    1.8175    0.8749 H       1  UNL1        0.0428
     13 H           0.8045    0.4441    2.0134 H       1  UNL1        0.0428
     14 H           0.7989    0.1472    0.2579 H       1  UNL1        0.0428
     15 H           2.5866    2.9103    0.7425 H       1  UNL1        0.0428
     16 H           3.9132    2.0328   -0.0484 H       1  UNL1        0.0428
     17 H           3.9326    2.2737    1.7219 H       1  UNL1        0.0428
     18 H           5.1978    0.5174    0.8234 H       1  UNL1        0.0537
     19 H           5.0406   -1.1962    0.4231 H       1  UNL1        0.0537
     20 H           4.9229   -1.5898    2.9129 H       1  UNL1        0.1481
     21 H           7.0729    1.3495    3.3313 H       1  UNL1        0.0479
     22 H           7.2164    1.2575    1.5399 H       1  UNL1        0.0479
     23 H           8.6168    0.8650    2.5664 H       1  UNL1        0.0479
@<TRIPOS>BOND
     1     1     2    1
     2     2     3    1
     3     2     4   am
     4     4     5    2
     5     4     6    1
     6     6     7    1
     7     7     8    1
     8     8     9    1
     9     8    10    2
    10     8    11    2
    11     1    12    1
    12     1    13    1
    13     1    14    1
    14     3    15    1
    15     3    16    1
    16     3    17    1
    17     6    18    1
    18     6    19    1
    19     7    20    1
    20     9    21    1
    21     9    22    1
    22     9    23    1
