@<TRIPOS>MOLECULE
MOL
   23    23     1     0     0
SMALL
No Charge or Current Charge


@<TRIPOS>ATOM
 1  C1  -0.583000  -0.733000  -0.569000  C.ar  1  MOL  -0.033510 
 2  C2  -1.842000  -1.230000  -0.278000  C.ar  1  MOL  -0.452928 
 3  C3  -1.370000  1.427000  0.054000  C.ar  1  MOL  0.182360 
 4  C4  -0.316000  0.637000  -0.400000  C.ar  1  MOL  -0.013229 
 5  C5  -2.833000  -0.333000  0.178000  C.ar  1  MOL  0.723815 
 6  C6  2.886000  -0.264000  0.052000  C.2  1  MOL  0.510929 
 7  C7  3.848000  -0.599000  1.183000  C.3  1  MOL  -0.313908 
 8  C8  1.048000  1.222000  -0.691000  C.3  1  MOL  -0.215557 
 9  N1  -2.600000  0.977000  0.335000  N.ar  1  MOL  -0.619570 
 10  N2  -4.095000  -0.779000  0.535000  N.3  1  MOL  -0.913163 
 11  N3  2.085000  0.824000  0.264000  N.am  1  MOL  -0.353167 
 12  O1  2.849000  -0.925000  -0.981000  O.2  1  MOL  -0.514977 
 13  H1  0.204000  -1.392000  -0.926000  H  1  MOL  0.158345 
 14  H2  -2.068000  -2.286000  -0.394000  H  1  MOL  0.191188 
 15  H3  -1.224000  2.499000  0.194000  H  1  MOL  0.098431 
 16  H4  3.597000  -1.589000  1.580000  H  1  MOL  0.111818 
 17  H5  4.860000  -0.660000  0.774000  H  1  MOL  0.116842 
 18  H6  3.837000  0.125000  2.004000  H  1  MOL  0.089295 
 19  H7  1.408000  0.897000  -1.670000  H  1  MOL  0.121538 
 20  H8  0.993000  2.316000  -0.698000  H  1  MOL  0.121538 
 21  H9  -4.433000  -1.611000  0.070000  H  1  MOL  0.373480 
 22  H10  -4.780000  -0.037000  0.606000  H  1  MOL  0.373480 
 23  H11  2.051000  1.227000  1.190000  H  1  MOL  0.256949 
@<TRIPOS>BOND
     1     1     2 ar  
     2     1     4 ar  
     3     1    13 1   
     4     2     5 ar  
     5     2    14 1   
     6     3     4 ar  
     7     3     9 ar  
     8     3    15 1   
     9     4     8 1   
    10     5     9 ar  
    11     5    10 1   
    12     6     7 1   
    13     6    11 am  
    14     6    12 2   
    15     7    16 1   
    16     7    17 1   
    17     7    18 1   
    18     8    11 1   
    19     8    19 1   
    20     8    20 1   
    21    10    21 1   
    22    10    22 1   
    23    11    23 1   
@<TRIPOS>SUBSTRUCTURE
     1 MOL         1 TEMP              0 ****  ****    0 ROOT
