@<TRIPOS>MOLECULE
*****
 15 14 0 0 0
SMALL
GASTEIGER

@<TRIPOS>ATOM
      1 C           1.1307   -0.0025    0.0524 C.3     1  UNL1        0.0123
      2 C           2.6384    0.0073    0.0520 C.2     1  UNL1        0.2120
      3 O           3.2427    1.0795    0.0073 O.2     1  UNL1        0.2759
      4 N           3.2837   -1.2201    0.1031 N.am    1  UNL1        0.3078
      5 C           2.6200   -2.5142    0.1570 C.3     1  UNL1        0.0028
      6 C           4.7376   -1.2520    0.1044 C.3     1  UNL1        0.0028
      7 H           0.7623    1.0272    0.0095 H       1  UNL1        0.0323
      8 H           0.7554   -0.4583    0.9723 H       1  UNL1        0.0323
      9 H           0.7554   -0.5332   -0.8265 H       1  UNL1        0.0323
     10 H           1.5326   -2.4374    0.1538 H       1  UNL1        0.0428
     11 H           2.9308   -3.0279    1.0717 H       1  UNL1        0.0428
     12 H           2.9308   -3.1022   -0.7118 H       1  UNL1        0.0428
     13 H           5.1774   -0.2524    0.0628 H       1  UNL1        0.0428
     14 H           5.0774   -1.8218   -0.7656 H       1  UNL1        0.0428
     15 H           5.0774   -1.7475    1.0188 H       1  UNL1        0.0428
@<TRIPOS>BOND
     1     1     2    1
     2     2     3    2
     3     2     4   am
     4     4     5    1
     5     4     6    1
     6     1     7    1
     7     1     8    1
     8     1     9    1
     9     5    10    1
    10     5    11    1
    11     5    12    1
    12     6    13    1
    13     6    14    1
    14     6    15    1
