@<TRIPOS>MOLECULE
MOL
   23    23     1     0     0
SMALL
No Charge or Current Charge


@<TRIPOS>ATOM
 1  C1  1.496000  0.439000  -0.095000  C.2  1  MOL  0.596329 
 2  C2  -1.580000  -0.970000  -0.093000  C.2  1  MOL  0.562201 
 3  C3  -0.373000  2.259000  -0.214000  C.3  1  MOL  -0.002095 
 4  C4  -1.633000  1.583000  0.397000  C.3  1  MOL  -0.003418 
 5  C5  0.120000  0.856000  -0.646000  C.3  1  MOL  -0.243362 
 6  C6  -2.972000  -1.169000  0.479000  C.3  1  MOL  -0.157534 
 7  C7  2.970000  -1.451000  0.383000  C.3  1  MOL  -0.006198 
 8  N1  -1.064000  0.277000  0.023000  N.am  1  MOL  -0.199344 
 9  N2  1.719000  -0.894000  -0.102000  N.am  1  MOL  -0.470020 
 10  O1  2.312000  1.276000  0.284000  O.2  1  MOL  -0.524049 
 11  O2  -0.949000  -1.885000  -0.634000  O.2  1  MOL  -0.565919 
 12  H1  -0.574000  2.952000  -1.033000  H  1  MOL  0.051338 
 13  H2  0.299000  2.725000  0.507000  H  1  MOL  0.051338 
 14  H3  -1.771000  1.714000  1.476000  H  1  MOL  0.067804 
 15  H4  -2.576000  1.810000  -0.114000  H  1  MOL  0.067804 
 16  H5  0.101000  0.671000  -1.728000  H  1  MOL  0.137656 
 17  H6  -3.725000  -0.738000  -0.193000  H  1  MOL  0.062556 
 18  H7  -3.084000  -0.688000  1.456000  H  1  MOL  0.040540 
 19  H8  -3.161000  -2.239000  0.573000  H  1  MOL  0.058157 
 20  H9  3.799000  -1.232000  -0.301000  H  1  MOL  0.068972 
 21  H10  2.861000  -2.535000  0.472000  H  1  MOL  0.058547 
 22  H11  3.224000  -1.032000  1.362000  H  1  MOL  0.062004 
 23  H12  0.954000  -1.503000  -0.394000  H  1  MOL  0.286695 
@<TRIPOS>BOND
     1     1     5 1   
     2     1     9 am  
     3     1    10 2   
     4     2     6 1   
     5     2     8 am  
     6     2    11 2   
     7     3     4 1   
     8     3     5 1   
     9     3    12 1   
    10     3    13 1   
    11     4     8 1   
    12     4    14 1   
    13     4    15 1   
    14     5     8 1   
    15     5    16 1   
    16     6    17 1   
    17     6    18 1   
    18     6    19 1   
    19     7     9 1   
    20     7    20 1   
    21     7    21 1   
    22     7    22 1   
    23     9    23 1   
@<TRIPOS>SUBSTRUCTURE
     1 MOL         1 TEMP              0 ****  ****    0 ROOT
