@<TRIPOS>MOLECULE
MOL
   23    23     1     0     0
SMALL
No Charge or Current Charge


@<TRIPOS>ATOM
      1 C1           1.4960     0.4390    -0.0950 C.2        1 MOL       0.000000
      2 C2          -1.5800    -0.9700    -0.0930 C.2        1 MOL       0.000000
      3 C3          -0.3730     2.2590    -0.2140 C.3        1 MOL       0.000000
      4 C4          -1.6330     1.5830     0.3970 C.3        1 MOL       0.000000
      5 C5           0.1200     0.8560    -0.6460 C.3        1 MOL       0.000000
      6 C6          -2.9720    -1.1690     0.4790 C.3        1 MOL       0.000000
      7 C7           2.9700    -1.4510     0.3830 C.3        1 MOL       0.000000
      8 N1          -1.0640     0.2770     0.0230 N.am       1 MOL       0.000000
      9 N2           1.7190    -0.8940    -0.1020 N.am       1 MOL       0.000000
     10 O1           2.3120     1.2760     0.2840 O.2        1 MOL       0.000000
     11 O2          -0.9490    -1.8850    -0.6340 O.2        1 MOL       0.000000
     12 H1          -0.5740     2.9520    -1.0330 H          1 MOL       0.000000
     13 H2           0.2990     2.7250     0.5070 H          1 MOL       0.000000
     14 H3          -1.7710     1.7140     1.4760 H          1 MOL       0.000000
     15 H4          -2.5760     1.8100    -0.1140 H          1 MOL       0.000000
     16 H5           0.1010     0.6710    -1.7280 H          1 MOL       0.000000
     17 H6          -3.7250    -0.7380    -0.1930 H          1 MOL       0.000000
     18 H7          -3.0840    -0.6880     1.4560 H          1 MOL       0.000000
     19 H8          -3.1610    -2.2390     0.5730 H          1 MOL       0.000000
     20 H9           3.7990    -1.2320    -0.3010 H          1 MOL       0.000000
     21 H10          2.8610    -2.5350     0.4720 H          1 MOL       0.000000
     22 H11          3.2240    -1.0320     1.3620 H          1 MOL       0.000000
     23 H12          0.9540    -1.5030    -0.3940 H          1 MOL       0.000000
@<TRIPOS>BOND
     1     1     5 1   
     2     1     9 am  
     3     1    10 2   
     4     2     6 1   
     5     2     8 am  
     6     2    11 2   
     7     3     4 1   
     8     3     5 1   
     9     3    12 1   
    10     3    13 1   
    11     4     8 1   
    12     4    14 1   
    13     4    15 1   
    14     5     8 1   
    15     5    16 1   
    16     6    17 1   
    17     6    18 1   
    18     6    19 1   
    19     7     9 1   
    20     7    20 1   
    21     7    21 1   
    22     7    22 1   
    23     9    23 1   
@<TRIPOS>SUBSTRUCTURE
     1 MOL         1 TEMP              0 ****  ****    0 ROOT
