@<TRIPOS>MOLECULE
MOL
   28    28     1     0     0
SMALL
No Charge or Current Charge


@<TRIPOS>ATOM
      1 C1          -1.4680     1.7290     0.6380 C.ar       1 MOL       0.000000
      2 C2          -2.7070     1.0990     0.5490 C.ar       1 MOL       0.000000
      3 C3          -1.5880    -0.8500    -0.3480 C.ar       1 MOL       0.000000
      4 C4          -0.2790     1.0960     0.2490 C.ar       1 MOL       0.000000
      5 C5          -0.3410    -0.2260    -0.2570 C.ar       1 MOL       0.000000
      6 C6          -2.7580    -0.2000     0.0520 C.ar       1 MOL       0.000000
      7 C7           3.1650    -0.8320     0.1060 C.2        1 MOL       0.000000
      8 C8           4.2270    -1.4870     0.9550 C.3        1 MOL       0.000000
      9 C9           0.8530    -1.0170    -0.7820 C.3        1 MOL       0.000000
     10 C10          0.9970     1.8760     0.4580 C.3        1 MOL       0.000000
     11 N1           1.9090    -1.3320     0.1840 N.am       1 MOL       0.000000
     12 N2           1.7740     2.1320    -0.8300 N.4        1 MOL       0.000000
     13 O1           3.4500     0.1250    -0.6400 O.2        1 MOL       0.000000
     14 Cl1         -4.2840    -1.0270    -0.0780 Cl         1 MOL       0.000000
     15 H1          -1.4290     2.7410     1.0310 H          1 MOL       0.000000
     16 H2          -3.6120     1.6070     0.8600 H          1 MOL       0.000000
     17 H3          -1.6590    -1.8600    -0.7400 H          1 MOL       0.000000
     18 H4           4.9110    -2.0310     0.2940 H          1 MOL       0.000000
     19 H5           4.8110    -0.7150     1.4620 H          1 MOL       0.000000
     20 H6           3.8230    -2.1850     1.6920 H          1 MOL       0.000000
     21 H7           0.4830    -1.9640    -1.1850 H          1 MOL       0.000000
     22 H8           1.3400    -0.5080    -1.6180 H          1 MOL       0.000000
     23 H9           0.7690     2.8510     0.8910 H          1 MOL       0.000000
     24 H10          1.7080     1.3710     1.1160 H          1 MOL       0.000000
     25 H11          1.7480    -2.1160     0.8040 H          1 MOL       0.000000
     26 H12          1.1460     2.2860    -1.6250 H          1 MOL       0.000000
     27 H13          2.4210     1.2900    -0.9930 H          1 MOL       0.000000
     28 H14          2.3790     2.9560    -0.7410 H          1 MOL       0.000000
@<TRIPOS>BOND
     1     1     2 ar  
     2     1     4 ar  
     3     1    15 1   
     4     2     6 ar  
     5     2    16 1   
     6     3     5 ar  
     7     3     6 ar  
     8     3    17 1   
     9     4     5 ar  
    10     4    10 1   
    11     5     9 1   
    12     6    14 1   
    13     7     8 1   
    14     7    11 am  
    15     7    13 2   
    16     8    18 1   
    17     8    19 1   
    18     8    20 1   
    19     9    11 1   
    20     9    21 1   
    21     9    22 1   
    22    10    12 1   
    23    10    23 1   
    24    10    24 1   
    25    11    25 1   
    26    12    26 1   
    27    12    27 1   
    28    12    28 1   
@<TRIPOS>SUBSTRUCTURE
     1 MOL         1 TEMP              0 ****  ****    0 ROOT
