@<TRIPOS>MOLECULE
MOL
   28    28     1     0     0
SMALL
No Charge or Current Charge


@<TRIPOS>ATOM
 1  C1  -1.468000  1.729000  0.638000  C.ar  1  MOL  -0.185517 
 2  C2  -2.707000  1.099000  0.549000  C.ar  1  MOL  -0.029196 
 3  C3  -1.588000  -0.850000  -0.348000  C.ar  1  MOL  -0.118044 
 4  C4  -0.279000  1.096000  0.249000  C.ar  1  MOL  -0.045050 
 5  C5  -0.341000  -0.226000  -0.257000  C.ar  1  MOL  0.017397 
 6  C6  -2.758000  -0.200000  0.052000  C.ar  1  MOL  -0.039756 
 7  C7  3.165000  -0.832000  0.106000  C.2  1  MOL  0.419930 
 8  C8  4.227000  -1.487000  0.955000  C.3  1  MOL  -0.016420 
 9  C9  0.853000  -1.017000  -0.782000  C.3  1  MOL  -0.021100 
 10  C10  0.997000  1.876000  0.458000  C.3  1  MOL  -0.028473 
 11  N1  1.909000  -1.332000  0.184000  N.am  1  MOL  -0.189472 
 12  N2  1.774000  2.132000  -0.830000  N.4  1  MOL  -0.358097 
 13  O1  3.450000  0.125000  -0.640000  O.2  1  MOL  -0.497640 
 14  Cl1  -4.284000  -1.027000  -0.078000  Cl  1  MOL  -0.030363 
 15  H1  -1.429000  2.741000  1.031000  H  1  MOL  0.173297 
 16  H2  -3.612000  1.607000  0.860000  H  1  MOL  0.150922 
 17  H3  -1.659000  -1.860000  -0.740000  H  1  MOL  0.160613 
 18  H4  4.911000  -2.031000  0.294000  H  1  MOL  0.031380 
 19  H5  4.811000  -0.715000  1.462000  H  1  MOL  0.031380 
 20  H6  3.823000  -2.185000  1.692000  H  1  MOL  0.031380 
 21  H7  0.483000  -1.964000  -1.185000  H  1  MOL  0.082610 
 22  H8  1.340000  -0.508000  -1.618000  H  1  MOL  0.082610 
 23  H9  0.769000  2.851000  0.891000  H  1  MOL  0.121531 
 24  H10  1.708000  1.371000  1.116000  H  1  MOL  0.121531 
 25  H11  1.748000  -2.116000  0.804000  H  1  MOL  0.222824 
 26  H12  1.146000  2.286000  -1.625000  H  1  MOL  0.303907 
 27  H13  2.421000  1.290000  -0.993000  H  1  MOL  0.303907 
 28  H14  2.379000  2.956000  -0.741000  H  1  MOL  0.303907 
@<TRIPOS>BOND
     1     1     2 ar  
     2     1     4 ar  
     3     1    15 1   
     4     2     6 ar  
     5     2    16 1   
     6     3     5 ar  
     7     3     6 ar  
     8     3    17 1   
     9     4     5 ar  
    10     4    10 1   
    11     5     9 1   
    12     6    14 1   
    13     7     8 1   
    14     7    11 am  
    15     7    13 2   
    16     8    18 1   
    17     8    19 1   
    18     8    20 1   
    19     9    11 1   
    20     9    21 1   
    21     9    22 1   
    22    10    12 1   
    23    10    23 1   
    24    10    24 1   
    25    11    25 1   
    26    12    26 1   
    27    12    27 1   
    28    12    28 1   
@<TRIPOS>SUBSTRUCTURE
     1 MOL         1 TEMP              0 ****  ****    0 ROOT
