@<TRIPOS>MOLECULE
*****
 24 23 0 0 0
SMALL
GASTEIGER

@<TRIPOS>ATOM
      1 C           1.0356    0.0105   -0.0232 C.3     1  UNL1        0.0597
      2 C           2.5557   -0.0829    0.0167 C.3     1  UNL1        0.0039
      3 C           3.0666   -1.1758    0.9642 C.3     1  UNL1        0.0531
      4 H           2.5949   -1.0916    1.9386 H       1  UNL1        0.0948
      5 N           2.6326   -2.5185    0.4330 N.4     1  UNL1        0.2273
      6 H           3.0204   -2.6413   -0.5156 H       1  UNL1        0.2002
      7 H           3.0323   -3.2765    1.0007 H       1  UNL1        0.2002
      8 H           1.6147   -2.6337    0.4012 H       1  UNL1        0.2002
      9 C           4.6086   -1.1634    1.0144 C.2     1  UNL1        0.2632
     10 O           5.1942   -1.4665   -0.0327 O.2     1  UNL1        0.2694
     11 N           5.2763   -0.9391    2.2031 N.am    1  UNL1        0.3030
     12 C           4.6826   -0.7177    3.5179 C.3     1  UNL1        0.0030
     13 C           6.7387   -0.9699    2.2031 C.3     1  UNL1        0.0030
     14 H           0.7235    0.8370   -0.6693 H       1  UNL1        0.0232
     15 H           0.6305    0.1892    0.9776 H       1  UNL1        0.0232
     16 H           0.5844   -0.9038   -0.4200 H       1  UNL1        0.0232
     17 H           2.9574    0.8874    0.3344 H       1  UNL1        0.0322
     18 H           2.9294   -0.2488   -1.0023 H       1  UNL1        0.0322
     19 H           3.6007   -0.6184    3.4949 H       1  UNL1        0.0428
     20 H           5.1007    0.1986    3.9437 H       1  UNL1        0.0428
     21 H           4.9411   -1.5670    4.1585 H       1  UNL1        0.0428
     22 H           7.1565   -1.1144    1.2040 H       1  UNL1        0.0428
     23 H           7.0729   -1.7882    2.8487 H       1  UNL1        0.0428
     24 H           7.1077   -0.0203    2.6028 H       1  UNL1        0.0428
@<TRIPOS>BOND
     1     1     2    1
     2     2     3    1
     3     3     4    1
     4     3     5    1
     5     5     6    1
     6     5     7    1
     7     5     8    1
     8     3     9    1
     9     9    10    2
    10     9    11   am
    11    11    12    1
    12    11    13    1
    13     1    14    1
    14     1    15    1
    15     1    16    1
    16     2    17    1
    17     2    18    1
    18    12    19    1
    19    12    20    1
    20    12    21    1
    21    13    22    1
    22    13    23    1
    23    13    24    1
