@<TRIPOS>MOLECULE
*****
 26 25 0 0 0
SMALL
GASTEIGER

@<TRIPOS>ATOM
      1 C           6.5957   -1.8413   -1.8307 C.3     1  UNL1        0.0121
      2 C           6.2999   -0.9613   -0.6471 C.2     1  UNL1        0.2099
      3 O           7.0493   -0.0651   -0.2666 O.2     1  UNL1        0.2761
      4 N           5.1354   -1.3036    0.0078 N.am    1  UNL1        0.3154
      5 C           4.6747   -0.5956    1.1805 C.3     1  UNL1        0.0144
      6 C           5.2260   -1.1802    2.4817 C.3     1  UNL1        0.0066
      7 C           6.7487   -1.1312    2.5913 C.3     1  UNL1        0.0660
      8 N           7.2957    0.2220    2.4195 N.pl3   1  UNL1        0.2787
      9 C           7.1205    1.2615    3.2394 C.cat   1  UNL1        0.3410
     10 N           6.4199    1.1517    4.3725 N.pl3   1  UNL1        0.2919
     11 N           7.6468    2.4493    2.9345 N.pl3   1  UNL1        0.2919
     12 H           8.2017    2.5751    2.0965 H       1  UNL1        0.2545
     13 H           7.5286    3.2519    3.5379 H       1  UNL1        0.2545
     14 H           7.5236   -1.5138   -2.3061 H       1  UNL1        0.0322
     15 H           5.7816   -1.7788   -2.5578 H       1  UNL1        0.0322
     16 H           6.7149   -2.8765   -1.4974 H       1  UNL1        0.0322
     17 H           4.5784   -2.0760   -0.3441 H       1  UNL1        0.1487
     18 H           3.5813   -0.6571    1.1866 H       1  UNL1        0.0463
     19 H           4.9434    0.4630    1.0899 H       1  UNL1        0.0463
     20 H           4.9025   -2.2222    2.5848 H       1  UNL1        0.0311
     21 H           4.7731   -0.6296    3.3119 H       1  UNL1        0.0311
     22 H           7.2057   -1.7659    1.8235 H       1  UNL1        0.0655
     23 H           7.1007   -1.5288    3.5488 H       1  UNL1        0.0655
     24 H           7.7552    0.3907    1.5213 H       1  UNL1        0.2578
     25 H           6.0633    0.2582    4.6802 H       1  UNL1        0.2545
     26 H           6.2337    1.9495    4.9636 H       1  UNL1        0.2545
@<TRIPOS>BOND
     1     1     2    1
     2     2     3    2
     3     2     4   am
     4     4     5    1
     5     5     6    1
     6     6     7    1
     7     7     8    1
     8     8     9    1
     9     9    10    1
    10     9    11    2
    11    11    12    1
    12    11    13    1
    13     1    14    1
    14     1    15    1
    15     1    16    1
    16     4    17    1
    17     5    18    1
    18     5    19    1
    19     6    20    1
    20     6    21    1
    21     7    22    1
    22     7    23    1
    23     8    24    1
    24    10    25    1
    25    10    26    1
