@<TRIPOS>MOLECULE
*****
 47 47 0 0 0
SMALL
GASTEIGER

@<TRIPOS>ATOM
      1 C           3.3018   -0.9170    0.7935 C.3     1  UNL1        0.0030
      2 N           2.4793    0.0382    0.0621 N.am    1  UNL1        0.3032
      3 C           1.0361   -0.0247    0.2624 C.3     1  UNL1        0.0030
      4 C           3.0332    1.0448   -0.7315 C.2     1  UNL1        0.2602
      5 O           2.3954    1.9184   -1.3094 O.2     1  UNL1        0.2697
      6 C           4.5596    1.0085   -0.8378 C.3     1  UNL1        0.0451
      7 N           5.1808    2.1069   -1.6610 N.4     1  UNL1        0.2425
      8 H           4.8683    1.9860   -2.6389 H       1  UNL1        0.2026
      9 H           4.7855    3.0056   -1.3551 H       1  UNL1        0.2026
     10 C           6.7177    2.0664   -1.6093 C.3     1  UNL1        0.0584
     11 H           6.9562    2.1992   -0.5574 H       1  UNL1        0.0952
     12 C           7.2056    0.6905   -2.1664 C.2     1  UNL1        0.2636
     13 O           6.7532    0.3416   -3.2631 O.2     1  UNL1        0.2694
     14 N           8.0367   -0.1311   -1.4178 N.am    1  UNL1        0.3030
     15 C           8.4668    0.0678   -0.0382 C.3     1  UNL1        0.0030
     16 C           8.4642   -1.4087   -1.9917 C.3     1  UNL1        0.0030
     17 C           7.2854    3.2352   -2.4591 C.3     1  UNL1        0.0107
     18 C           6.9351    4.6358   -1.9088 C.3     1  UNL1        0.0446
     19 C           7.7016    5.0093   -0.6380 C.3     1  UNL1        0.0526
     20 C           9.2089    4.8249   -0.7921 C.3     1  UNL1        0.0530
     21 C           9.5628    3.4434   -1.3244 C.3     1  UNL1        0.0526
     22 C           8.8183    3.1462   -2.6224 C.3     1  UNL1        0.0446
     23 H           2.7003   -1.6202    1.3708 H       1  UNL1        0.0428
     24 H           3.9634   -0.3681    1.4703 H       1  UNL1        0.0428
     25 H           3.9109   -1.4724    0.0740 H       1  UNL1        0.0428
     26 H           0.7621   -0.9336    0.8083 H       1  UNL1        0.0428
     27 H           0.5312   -0.0315   -0.7072 H       1  UNL1        0.0428
     28 H           0.7120    0.8489    0.8345 H       1  UNL1        0.0428
     29 H           4.8509    0.0638   -1.3003 H       1  UNL1        0.0912
     30 H           4.9822    1.1200    0.1635 H       1  UNL1        0.0912
     31 H           8.2325    1.0539    0.3505 H       1  UNL1        0.0428
     32 H           9.5496   -0.0817    0.0214 H       1  UNL1        0.0428
     33 H           7.9649   -0.6759    0.5880 H       1  UNL1        0.0428
     34 H           8.2529   -1.4803   -3.0611 H       1  UNL1        0.0428
     35 H           7.9441   -2.2169   -1.4677 H       1  UNL1        0.0428
     36 H           9.5434   -1.5235   -1.8426 H       1  UNL1        0.0428
     37 H           6.8489    3.1590   -3.4648 H       1  UNL1        0.0361
     38 H           5.8607    4.7396   -1.7290 H       1  UNL1        0.0270
     39 H           7.1787    5.3771   -2.6819 H       1  UNL1        0.0270
     40 H           7.3408    4.4087    0.2048 H       1  UNL1        0.0265
     41 H           7.4952    6.0565   -0.3859 H       1  UNL1        0.0265
     42 H           9.7016    4.9852    0.1738 H       1  UNL1        0.0265
     43 H           9.6009    5.5846   -1.4791 H       1  UNL1        0.0265
     44 H           9.3220    2.6957   -0.5659 H       1  UNL1        0.0265
     45 H          10.6427    3.3743   -1.4939 H       1  UNL1        0.0265
     46 H           9.1206    2.1664   -3.0063 H       1  UNL1        0.0270
     47 H           9.1339    3.8720   -3.3833 H       1  UNL1        0.0270
@<TRIPOS>BOND
     1     1     2    1
     2     2     3    1
     3     2     4   am
     4     4     5    2
     5     4     6    1
     6     6     7    1
     7     7     8    1
     8     7     9    1
     9     7    10    1
    10    10    11    1
    11    10    12    1
    12    12    13    2
    13    12    14   am
    14    14    15    1
    15    14    16    1
    16    10    17    1
    17    17    18    1
    18    18    19    1
    19    19    20    1
    20    20    21    1
    21    21    22    1
    22    17    22    1
    23     1    23    1
    24     1    24    1
    25     1    25    1
    26     3    26    1
    27     3    27    1
    28     3    28    1
    29     6    29    1
    30     6    30    1
    31    15    31    1
    32    15    32    1
    33    15    33    1
    34    16    34    1
    35    16    35    1
    36    16    36    1
    37    17    37    1
    38    18    38    1
    39    18    39    1
    40    19    40    1
    41    19    41    1
    42    20    42    1
    43    20    43    1
    44    21    44    1
    45    21    45    1
    46    22    46    1
    47    22    47    1
