@<TRIPOS>MOLECULE
MOL
   25    25     1     0     0
SMALL
No Charge or Current Charge


@<TRIPOS>ATOM
 1  C1  1.331000  1.549000  0.019000  C.ar  1  MOL  -0.124384 
 2  C2  0.476000  -0.655000  -0.407000  C.ar  1  MOL  -0.124384 
 3  C3  2.582000  0.997000  0.234000  C.ar  1  MOL  -0.037228 
 4  C4  1.741000  -1.158000  -0.186000  C.ar  1  MOL  -0.037228 
 5  C5  0.244000  0.729000  -0.306000  C.ar  1  MOL  0.099524 
 6  C6  -2.866000  -0.346000  0.036000  C.2  1  MOL  0.419930 
 7  C7  -4.079000  -0.625000  0.897000  C.3  1  MOL  -0.016420 
 8  C8  4.114000  -0.926000  0.384000  C.3  1  MOL  -0.240814 
 9  C9  -1.140000  1.300000  -0.573000  C.3  1  MOL  -0.240568 
 10  N1  2.777000  -0.337000  0.131000  N.pl3  1  MOL  0.120207 
 11  N2  -2.158000  0.797000  0.337000  N.am  1  MOL  -0.189472 
 12  O1  -2.517000  -1.073000  -0.888000  O.2  1  MOL  -0.497640 
 13  H1  1.219000  2.625000  0.104000  H  1  MOL  0.177220 
 14  H2  -0.342000  -1.319000  -0.671000  H  1  MOL  0.177220 
 15  H3  3.449000  1.594000  0.488000  H  1  MOL  0.201773 
 16  H4  1.973000  -2.214000  -0.259000  H  1  MOL  0.201773 
 17  H5  -4.981000  -0.385000  0.322000  H  1  MOL  0.031380 
 18  H6  -4.112000  -1.692000  1.128000  H  1  MOL  0.031380 
 19  H7  -4.096000  -0.049000  1.827000  H  1  MOL  0.031380 
 20  H8  4.101000  -1.455000  1.340000  H  1  MOL  0.148575 
 21  H9  4.357000  -1.619000  -0.423000  H  1  MOL  0.148575 
 22  H10  4.856000  -0.129000  0.414000  H  1  MOL  0.148575 
 23  H11  -1.112000  2.390000  -0.506000  H  1  MOL  0.173900 
 24  H12  -1.429000  1.025000  -1.595000  H  1  MOL  0.173900 
 25  H13  -2.490000  1.410000  1.069000  H  1  MOL  0.222824 
@<TRIPOS>BOND
     1     1     3 ar  
     2     1     5 ar  
     3     1    13 1   
     4     2     4 ar  
     5     2     5 ar  
     6     2    14 1   
     7     3    10 2   
     8     3    15 1   
     9     4    10 1   
    10     4    16 1   
    11     5     9 1   
    12     6     7 1   
    13     6    11 am  
    14     6    12 2   
    15     7    17 1   
    16     7    18 1   
    17     7    19 1   
    18     8    10 1   
    19     8    20 1   
    20     8    21 1   
    21     8    22 1   
    22     9    11 1   
    23     9    23 1   
    24     9    24 1   
    25    11    25 1   
@<TRIPOS>SUBSTRUCTURE
     1 MOL         1 TEMP              0 ****  ****    0 ROOT
