@<TRIPOS>MOLECULE
MOL
   31    31     1     0     0
SMALL
No Charge or Current Charge


@<TRIPOS>ATOM
      1 C1          -1.8270     0.3350     0.1730 C.2        1 MOL       0.000000
      2 C2           3.6680    -0.8920     0.3680 C.3        1 MOL       0.000000
      3 C3           4.0340     0.5180    -0.1220 C.3        1 MOL       0.000000
      4 C4           2.4000    -1.2150    -0.4430 C.3        1 MOL       0.000000
      5 C5           2.6720     1.2400    -0.2580 C.3        1 MOL       0.000000
      6 C6           1.6240     0.1180    -0.5010 C.3        1 MOL       0.000000
      7 C7          -4.1640     0.7990    -0.2770 C.3        1 MOL       0.000000
      8 C8          -3.4090    -1.5580    -0.1310 C.3        1 MOL       0.000000
      9 C9          -0.6630    -0.6710     0.3970 C.3        1 MOL       0.000000
     10 N1          -3.0550    -0.1410    -0.0670 N.am       1 MOL       0.000000
     11 N2           0.5550     0.1860     0.5860 N.4        1 MOL       0.000000
     12 O1          -1.5310     1.5370     0.2350 O.2        1 MOL       0.000000
     13 H1           4.4610    -1.6270     0.2110 H          1 MOL       0.000000
     14 H2           3.4510    -0.8820     1.4470 H          1 MOL       0.000000
     15 H3           4.7160     1.0470     0.5480 H          1 MOL       0.000000
     16 H4           4.5230     0.4540    -1.1000 H          1 MOL       0.000000
     17 H5           2.6780    -1.4880    -1.4670 H          1 MOL       0.000000
     18 H6           1.8090    -2.0480    -0.0450 H          1 MOL       0.000000
     19 H7           2.4350     1.7860     0.6650 H          1 MOL       0.000000
     20 H8           2.6570     1.9790    -1.0640 H          1 MOL       0.000000
     21 H9           1.0650     0.2530    -1.4300 H          1 MOL       0.000000
     22 H10         -4.6040     0.6310    -1.2650 H          1 MOL       0.000000
     23 H11         -3.7860     1.8170    -0.2100 H          1 MOL       0.000000
     24 H12         -4.9310     0.6380     0.4870 H          1 MOL       0.000000
     25 H13         -4.1660    -1.7850     0.6270 H          1 MOL       0.000000
     26 H14         -2.5450    -2.2000     0.0440 H          1 MOL       0.000000
     27 H15         -3.8220    -1.7940    -1.1170 H          1 MOL       0.000000
     28 H16         -0.8180    -1.2850     1.2860 H          1 MOL       0.000000
     29 H17         -0.5080    -1.3280    -0.4600 H          1 MOL       0.000000
     30 H18          0.9890     0.0150     1.4970 H          1 MOL       0.000000
     31 H19          0.1290     1.1520     0.5960 H          1 MOL       0.000000
@<TRIPOS>BOND
     1     1     9 1   
     2     1    10 am  
     3     1    12 2   
     4     2     3 1   
     5     2     4 1   
     6     2    13 1   
     7     2    14 1   
     8     3     5 1   
     9     3    15 1   
    10     3    16 1   
    11     4     6 1   
    12     4    17 1   
    13     4    18 1   
    14     5     6 1   
    15     5    19 1   
    16     5    20 1   
    17     6    11 1   
    18     6    21 1   
    19     7    10 1   
    20     7    22 1   
    21     7    23 1   
    22     7    24 1   
    23     8    10 1   
    24     8    25 1   
    25     8    26 1   
    26     8    27 1   
    27     9    11 1   
    28     9    28 1   
    29     9    29 1   
    30    11    30 1   
    31    11    31 1   
@<TRIPOS>SUBSTRUCTURE
     1 MOL         1 TEMP              0 ****  ****    0 ROOT
