@<TRIPOS>MOLECULE
MOL
   31    31     1     0     0
SMALL
No Charge or Current Charge


@<TRIPOS>ATOM
 1  C1  -1.827000  0.335000  0.173000  C.2  1  MOL  0.983980 
 2  C2  3.668000  -0.892000  0.368000  C.3  1  MOL  -0.127835 
 3  C3  4.034000  0.518000  -0.122000  C.3  1  MOL  -0.127835 
 4  C4  2.400000  -1.215000  -0.443000  C.3  1  MOL  -0.104186 
 5  C5  2.672000  1.240000  -0.258000  C.3  1  MOL  -0.104186 
 6  C6  1.624000  0.118000  -0.501000  C.3  1  MOL  0.337518 
 7  C7  -4.164000  0.799000  -0.277000  C.3  1  MOL  -0.028720 
 8  C8  -3.409000  -1.558000  -0.131000  C.3  1  MOL  -0.028720 
 9  C9  -0.663000  -0.671000  0.397000  C.3  1  MOL  -0.379129 
 10  N1  -3.055000  -0.141000  -0.067000  N.am  1  MOL  -0.237110 
 11  N2  0.555000  0.186000  0.586000  N.4  1  MOL  -0.989818 
 12  O1  -1.531000  1.537000  0.235000  O.2  1  MOL  -0.625131 
 13  H1  4.461000  -1.627000  0.211000  H  1  MOL  0.083667 
 14  H2  3.451000  -0.882000  1.447000  H  1  MOL  0.083667 
 15  H3  4.716000  1.047000  0.548000  H  1  MOL  0.083667 
 16  H4  4.523000  0.454000  -1.100000  H  1  MOL  0.083667 
 17  H5  2.678000  -1.488000  -1.467000  H  1  MOL  0.083057 
 18  H6  1.809000  -2.048000  -0.045000  H  1  MOL  0.083057 
 19  H7  2.435000  1.786000  0.665000  H  1  MOL  0.083057 
 20  H8  2.657000  1.979000  -1.064000  H  1  MOL  0.083057 
 21  H9  1.065000  0.253000  -1.430000  H  1  MOL  0.033083 
 22  H10  -4.604000  0.631000  -1.265000  H  1  MOL  0.049090 
 23  H11  -3.786000  1.817000  -0.210000  H  1  MOL  0.049090 
 24  H12  -4.931000  0.638000  0.487000  H  1  MOL  0.049090 
 25  H13  -4.166000  -1.785000  0.627000  H  1  MOL  0.049090 
 26  H14  -2.545000  -2.200000  0.044000  H  1  MOL  0.049090 
 27  H15  -3.822000  -1.794000  -1.117000  H  1  MOL  0.049090 
 28  H16  -0.818000  -1.285000  1.286000  H  1  MOL  0.230469 
 29  H17  -0.508000  -1.328000  -0.460000  H  1  MOL  0.230469 
 30  H18  0.989000  0.015000  1.497000  H  1  MOL  0.487857 
 31  H19  0.129000  1.152000  0.596000  H  1  MOL  0.487857 
@<TRIPOS>BOND
     1     1     9 1   
     2     1    10 am  
     3     1    12 2   
     4     2     3 1   
     5     2     4 1   
     6     2    13 1   
     7     2    14 1   
     8     3     5 1   
     9     3    15 1   
    10     3    16 1   
    11     4     6 1   
    12     4    17 1   
    13     4    18 1   
    14     5     6 1   
    15     5    19 1   
    16     5    20 1   
    17     6    11 1   
    18     6    21 1   
    19     7    10 1   
    20     7    22 1   
    21     7    23 1   
    22     7    24 1   
    23     8    10 1   
    24     8    25 1   
    25     8    26 1   
    26     8    27 1   
    27     9    11 1   
    28     9    28 1   
    29     9    29 1   
    30    11    30 1   
    31    11    31 1   
@<TRIPOS>SUBSTRUCTURE
     1 MOL         1 TEMP              0 ****  ****    0 ROOT
