@<TRIPOS>MOLECULE
MOL
   24    23     1     0     0
SMALL
No Charge or Current Charge


@<TRIPOS>ATOM
      1 C1         -0.8060    2.2390    0.0670 C.3       1 MOL      0.000000
      2 C2         -4.0390    0.1240   -0.4090 C.3       1 MOL      0.000000
      3 C3          2.4440   -1.6970    0.2480 C.3       1 MOL      0.000000
      4 C4         -0.2280    0.8530   -0.1910 C.3       1 MOL      0.000000
      5 N1         -2.6950   -0.1990   -0.9140 N.3       1 MOL      0.000000
      6 N2          0.9600    0.5880    0.5770 N.3       1 MOL      0.000000
      7 O1          3.4710    0.7290    0.6020 O.2       1 MOL      0.000000
      8 O2          2.2550    0.1990   -1.5900 O.2       1 MOL      0.000000
      9 O3         -1.9930   -0.2140    1.5700 O.2       1 MOL      0.000000
     10 O4         -0.8430   -1.7630   -0.1230 O.2       1 MOL      0.000000
     11 S1          2.4020    0.0570   -0.1390 S.o2      1 MOL      0.000000
     12 S2         -1.4650   -0.4740    0.2240 S.o2      1 MOL      0.000000
     13 H1         -1.0430    2.3700    1.1280 H         1 MOL      0.000000
     14 H2         -0.0720    2.9930   -0.2350 H         1 MOL      0.000000
     15 H3         -1.7180    2.3900   -0.5160 H         1 MOL      0.000000
     16 H4         -3.9790    0.9910    0.2500 H         1 MOL      0.000000
     17 H5         -4.5090   -0.6990    0.1430 H         1 MOL      0.000000
     18 H6         -4.6590    0.3840   -1.2710 H         1 MOL      0.000000
     19 H7          3.3170   -2.1140   -0.2590 H         1 MOL      0.000000
     20 H8          2.5380   -1.8080    1.3300 H         1 MOL      0.000000
     21 H9          1.5180   -2.1500   -0.1090 H         1 MOL      0.000000
     22 H10        -0.0140    0.6960   -1.2520 H         1 MOL      0.000000
     23 H11        -2.6870   -0.9830   -1.5630 H         1 MOL      0.000000
     24 H12         1.1320    1.1650    1.3930 H         1 MOL      0.000000
@<TRIPOS>BOND
     1    1    4 1   
     2    1   13 1   
     3    1   14 1   
     4    1   15 1   
     5    2    5 1   
     6    2   16 1   
     7    2   17 1   
     8    2   18 1   
     9    3   11 1   
    10    3   19 1   
    11    3   20 1   
    12    3   21 1   
    13    4    6 1   
    14    4   12 1   
    15    4   22 1   
    16    5   12 1   
    17    5   23 1   
    18    6   11 1   
    19    6   24 1   
    20    7   11 2   
    21    8   11 2   
    22    9   12 2   
    23   10   12 2   
@<TRIPOS>SUBSTRUCTURE
     1 MOL         1 TEMP              0 ****  ****    0 ROOT
