@<TRIPOS>MOLECULE
MOL
   41    41     1     0     0
SMALL
No Charge or Current Charge


@<TRIPOS>ATOM
      1 C1           3.4740    -1.0300     0.2220 C.2        1 MOL       0.000000
      2 C2          -0.1100     1.5710    -0.5050 C.2        1 MOL       0.000000
      3 C3          -3.5090    -2.0390    -0.0280 C.3        1 MOL       0.000000
      4 C4          -2.8490    -1.7600     1.3290 C.3        1 MOL       0.000000
      5 C5          -2.4560    -2.2920    -1.1150 C.3        1 MOL       0.000000
      6 C6          -1.8400    -0.6020     1.2410 C.3        1 MOL       0.000000
      7 C7          -1.4450    -1.1360    -1.2080 C.3        1 MOL       0.000000
      8 C8          -0.7750    -0.8770     0.1600 C.3        1 MOL       0.000000
      9 C9          -1.1450     3.7580    -0.4190 C.3        1 MOL       0.000000
     10 C10         -0.7590     2.5680     1.7050 C.3        1 MOL       0.000000
     11 C11          2.8220     0.1840    -0.4770 C.3        1 MOL       0.000000
     12 C12          0.3300     0.2180     0.1240 C.3        1 MOL       0.000000
     13 N1           4.6740    -0.8200     0.7870 N.am       1 MOL       0.000000
     14 N2          -0.6630     2.5410     0.2470 N.am       1 MOL       0.000000
     15 N3           1.4310    -0.2370    -0.8150 N.4        1 MOL       0.000000
     16 O1           2.8770    -2.1020     0.2110 O.2        1 MOL       0.000000
     17 O2           0.0630     1.6700    -1.7300 O.2        1 MOL       0.000000
     18 H1          -4.1830    -2.8990     0.0510 H          1 MOL       0.000000
     19 H2          -4.1310    -1.1790    -0.3150 H          1 MOL       0.000000
     20 H3          -3.6060    -1.5230     2.0850 H          1 MOL       0.000000
     21 H4          -2.3300    -2.6630     1.6790 H          1 MOL       0.000000
     22 H5          -1.9190    -3.2260    -0.8960 H          1 MOL       0.000000
     23 H6          -2.9360    -2.4300    -2.0900 H          1 MOL       0.000000
     24 H7          -2.3780     0.3240     0.9970 H          1 MOL       0.000000
     25 H8          -1.3610    -0.4540     2.2180 H          1 MOL       0.000000
     26 H9          -0.6990    -1.3700    -1.9800 H          1 MOL       0.000000
     27 H10         -1.9570    -0.2250    -1.5440 H          1 MOL       0.000000
     28 H11         -0.2460    -1.7950     0.4620 H          1 MOL       0.000000
     29 H12         -2.1730     3.9600    -0.1020 H          1 MOL       0.000000
     30 H13         -1.1090     3.6160    -1.4970 H          1 MOL       0.000000
     31 H14         -0.5150     4.6110    -0.1410 H          1 MOL       0.000000
     32 H15         -0.2350     3.4520     2.0860 H          1 MOL       0.000000
     33 H16         -0.3210     1.6820     2.1600 H          1 MOL       0.000000
     34 H17         -1.8080     2.6290     2.0140 H          1 MOL       0.000000
     35 H18          3.3530     0.4230    -1.4030 H          1 MOL       0.000000
     36 H19          2.8010     1.0780     0.1500 H          1 MOL       0.000000
     37 H20          0.7790     0.3180     1.1130 H          1 MOL       0.000000
     38 H21          5.1570     0.0670     0.7490 H          1 MOL       0.000000
     39 H22          5.1580    -1.6080     1.2010 H          1 MOL       0.000000
     40 H23          1.1300     0.1680    -1.7270 H          1 MOL       0.000000
     41 H24          1.4700    -1.2740    -0.8260 H          1 MOL       0.000000
@<TRIPOS>BOND
     1     1    11 1   
     2     1    13 am  
     3     1    16 2   
     4     2    12 1   
     5     2    14 am  
     6     2    17 2   
     7     3     4 1   
     8     3     5 1   
     9     3    18 1   
    10     3    19 1   
    11     4     6 1   
    12     4    20 1   
    13     4    21 1   
    14     5     7 1   
    15     5    22 1   
    16     5    23 1   
    17     6     8 1   
    18     6    24 1   
    19     6    25 1   
    20     7     8 1   
    21     7    26 1   
    22     7    27 1   
    23     8    12 1   
    24     8    28 1   
    25     9    14 1   
    26     9    29 1   
    27     9    30 1   
    28     9    31 1   
    29    10    14 1   
    30    10    32 1   
    31    10    33 1   
    32    10    34 1   
    33    11    15 1   
    34    11    35 1   
    35    11    36 1   
    36    12    15 1   
    37    12    37 1   
    38    13    38 1   
    39    13    39 1   
    40    15    40 1   
    41    15    41 1   
@<TRIPOS>SUBSTRUCTURE
     1 MOL         1 TEMP              0 ****  ****    0 ROOT
