@<TRIPOS>MOLECULE
MOL
   41    41     1     0     0
SMALL
No Charge or Current Charge


@<TRIPOS>ATOM
 1  C1  3.474000  -1.030000  0.222000  C.2  1  MOL  0.815531 
 2  C2  -0.110000  1.571000  -0.505000  C.2  1  MOL  0.636107 
 3  C3  -3.509000  -2.039000  -0.028000  C.3  1  MOL  -0.032958 
 4  C4  -2.849000  -1.760000  1.329000  C.3  1  MOL  -0.066699 
 5  C5  -2.456000  -2.292000  -1.115000  C.3  1  MOL  -0.066699 
 6  C6  -1.840000  -0.602000  1.241000  C.3  1  MOL  -0.086530 
 7  C7  -1.445000  -1.136000  -1.208000  C.3  1  MOL  -0.086530 
 8  C8  -0.775000  -0.877000  0.160000  C.3  1  MOL  0.086537 
 9  C9  -1.145000  3.758000  -0.419000  C.3  1  MOL  -0.071473 
 10  C10  -0.759000  2.568000  1.705000  C.3  1  MOL  -0.089282 
 11  C11  2.822000  0.184000  -0.477000  C.3  1  MOL  -0.053960 
 12  C12  0.330000  0.218000  0.124000  C.3  1  MOL  0.343868 
 13  N1  4.674000  -0.820000  0.787000  N.am  1  MOL  -1.028738 
 14  N2  -0.663000  2.541000  0.247000  N.am  1  MOL  -0.344286 
 15  N3  1.431000  -0.237000  -0.815000  N.4  1  MOL  -0.479685 
 16  O1  2.877000  -2.102000  0.211000  O.2  1  MOL  -0.576248 
 17  O2  0.063000  1.670000  -1.730000  O.2  1  MOL  -0.560519 
 18  H1  -4.183000  -2.899000  0.051000  H  1  MOL  0.043989 
 19  H2  -4.131000  -1.179000  -0.315000  H  1  MOL  0.043989 
 20  H3  -3.606000  -1.523000  2.085000  H  1  MOL  0.041585 
 21  H4  -2.330000  -2.663000  1.679000  H  1  MOL  0.041585 
 22  H5  -1.919000  -3.226000  -0.896000  H  1  MOL  0.041585 
 23  H6  -2.936000  -2.430000  -2.090000  H  1  MOL  0.041585 
 24  H7  -2.378000  0.324000  0.997000  H  1  MOL  0.031856 
 25  H8  -1.361000  -0.454000  2.218000  H  1  MOL  0.031856 
 26  H9  -0.699000  -1.370000  -1.980000  H  1  MOL  0.031856 
 27  H10  -1.957000  -0.225000  -1.544000  H  1  MOL  0.031856 
 28  H11  -0.246000  -1.795000  0.462000  H  1  MOL  0.000399 
 29  H12  -2.173000  3.960000  -0.102000  H  1  MOL  0.087465 
 30  H13  -1.109000  3.616000  -1.497000  H  1  MOL  0.084069 
 31  H14  -0.515000  4.611000  -0.141000  H  1  MOL  0.088028 
 32  H15  -0.235000  3.452000  2.086000  H  1  MOL  0.094118 
 33  H16  -0.321000  1.682000  2.160000  H  1  MOL  0.067267 
 34  H17  -1.808000  2.629000  2.014000  H  1  MOL  0.084095 
 35  H18  3.353000  0.423000  -1.403000  H  1  MOL  0.101764 
 36  H19  2.801000  1.078000  0.150000  H  1  MOL  0.101764 
 37  H20  0.779000  0.318000  1.113000  H  1  MOL  -0.011615 
 38  H21  5.157000  0.067000  0.749000  H  1  MOL  0.473038 
 39  H22  5.158000  -1.608000  1.201000  H  1  MOL  0.473038 
 40  H23  1.130000  0.168000  -1.727000  H  1  MOL  0.318198 
 41  H24  1.470000  -1.274000  -0.826000  H  1  MOL  0.318198 
@<TRIPOS>BOND
     1     1    11 1   
     2     1    13 am  
     3     1    16 2   
     4     2    12 1   
     5     2    14 am  
     6     2    17 2   
     7     3     4 1   
     8     3     5 1   
     9     3    18 1   
    10     3    19 1   
    11     4     6 1   
    12     4    20 1   
    13     4    21 1   
    14     5     7 1   
    15     5    22 1   
    16     5    23 1   
    17     6     8 1   
    18     6    24 1   
    19     6    25 1   
    20     7     8 1   
    21     7    26 1   
    22     7    27 1   
    23     8    12 1   
    24     8    28 1   
    25     9    14 1   
    26     9    29 1   
    27     9    30 1   
    28     9    31 1   
    29    10    14 1   
    30    10    32 1   
    31    10    33 1   
    32    10    34 1   
    33    11    15 1   
    34    11    35 1   
    35    11    36 1   
    36    12    15 1   
    37    12    37 1   
    38    13    38 1   
    39    13    39 1   
    40    15    40 1   
    41    15    41 1   
@<TRIPOS>SUBSTRUCTURE
     1 MOL         1 TEMP              0 ****  ****    0 ROOT
