@<TRIPOS>MOLECULE
MOL
   25    25     1     0     0
SMALL
No Charge or Current Charge


@<TRIPOS>ATOM
      1 C1          -2.3600     0.8720     0.6470 C.ar       1 MOL       0.000000
      2 C2          -0.9020    -0.5570    -0.6320 C.ar       1 MOL       0.000000
      3 C3          -1.3910     1.8470     0.5680 C.ar       1 MOL       0.000000
      4 C4          -2.1100    -0.3620     0.0350 C.ar       1 MOL       0.000000
      5 C5           0.0500     0.4540    -0.6880 C.ar       1 MOL       0.000000
      6 C6           2.6240    -0.7450     0.3830 C.2        1 MOL       0.000000
      7 C7           3.5420    -1.8390     0.8740 C.3        1 MOL       0.000000
      8 C8           0.7950     2.7390    -0.0520 C.3        1 MOL       0.000000
      9 C9           1.3480     0.2130    -1.4500 C.3        1 MOL       0.000000
     10 N1          -0.2150     1.6490    -0.0840 N.pl3      1 MOL       0.000000
     11 N2           2.0960    -0.8930    -0.8790 N.am       1 MOL       0.000000
     12 O1           2.3310     0.2440     1.0490 O.2        1 MOL       0.000000
     13 Cl1         -3.2840    -1.6180     0.0970 Cl         1 MOL       0.000000
     14 H1          -3.2850     1.0680     1.1760 H          1 MOL       0.000000
     15 H2          -0.6830    -1.5060    -1.1080 H          1 MOL       0.000000
     16 H3          -1.5220     2.8170     1.0290 H          1 MOL       0.000000
     17 H4           4.5660    -1.4500     0.9140 H          1 MOL       0.000000
     18 H5           3.2570    -2.1090     1.8940 H          1 MOL       0.000000
     19 H6           3.5290    -2.7320     0.2440 H          1 MOL       0.000000
     20 H7           1.7030     2.3360     0.4000 H          1 MOL       0.000000
     21 H8           0.9810     3.1070    -1.0630 H          1 MOL       0.000000
     22 H9           0.4020     3.5520     0.5560 H          1 MOL       0.000000
     23 H10          1.0880    -0.0500    -2.4800 H          1 MOL       0.000000
     24 H11          1.9580     1.1170    -1.4850 H          1 MOL       0.000000
     25 H12          2.4330    -1.6220    -1.4940 H          1 MOL       0.000000
@<TRIPOS>BOND
     1     1     3 ar  
     2     1     4 ar  
     3     1    14 1   
     4     2     4 ar  
     5     2     5 ar  
     6     2    15 1   
     7     3    10 2   
     8     3    16 1   
     9     4    13 1   
    10     5     9 1   
    11     5    10 1   
    12     6     7 1   
    13     6    11 am  
    14     6    12 2   
    15     7    17 1   
    16     7    18 1   
    17     7    19 1   
    18     8    10 1   
    19     8    20 1   
    20     8    21 1   
    21     8    22 1   
    22     9    11 1   
    23     9    23 1   
    24     9    24 1   
    25    11    25 1   
@<TRIPOS>SUBSTRUCTURE
     1 MOL         1 TEMP              0 ****  ****    0 ROOT
