@<TRIPOS>MOLECULE
MOL
   26    26     1     0     0
SMALL
No Charge or Current Charge


@<TRIPOS>ATOM
 1  C1  -2.331000  1.962000  0.418000  C.ar  1  MOL  -0.251606 
 2  C2  -1.025000  2.194000  -0.029000  C.ar  1  MOL  -0.150533 
 3  C3  -2.833000  0.669000  0.490000  C.ar  1  MOL  -0.130332 
 4  C4  -0.721000  -0.190000  -0.342000  C.ar  1  MOL  -0.095729 
 5  C5  -0.218000  1.121000  -0.408000  C.ar  1  MOL  0.056246 
 6  C6  -2.025000  -0.414000  0.107000  C.ar  1  MOL  0.162078 
 7  C7  2.778000  -0.339000  0.038000  C.2  1  MOL  0.510929 
 8  C8  3.749000  -0.661000  1.166000  C.3  1  MOL  -0.313908 
 9  C9  -1.841000  -2.779000  -0.181000  C.3  1  MOL  0.003458 
 10  C10  1.207000  1.344000  -0.880000  C.3  1  MOL  -0.169607 
 11  N1  2.222000  0.909000  0.080000  N.am  1  MOL  -0.353167 
 12  O1  2.530000  -1.149000  -0.850000  O.2  1  MOL  -0.514977 
 13  O2  -2.605000  -1.646000  0.205000  O.3  1  MOL  -0.317269 
 14  H1  -2.961000  2.798000  0.712000  H  1  MOL  0.177986 
 15  H2  -0.640000  3.210000  -0.086000  H  1  MOL  0.136502 
 16  H3  -3.843000  0.469000  0.832000  H  1  MOL  0.128386 
 17  H4  -0.077000  -1.008000  -0.645000  H  1  MOL  0.101420 
 18  H5  3.340000  -1.484000  1.761000  H  1  MOL  0.111818 
 19  H6  4.688000  -1.011000  0.729000  H  1  MOL  0.116842 
 20  H7  3.956000  0.186000  1.827000  H  1  MOL  0.089295 
 21  H8  -2.489000  -3.643000  -0.024000  H  1  MOL  0.070542 
 22  H9  -0.937000  -2.885000  0.433000  H  1  MOL  0.070542 
 23  H10  -1.550000  -2.728000  -1.238000  H  1  MOL  0.070542 
 24  H11  1.401000  0.779000  -1.795000  H  1  MOL  0.116796 
 25  H12  1.371000  2.405000  -1.094000  H  1  MOL  0.116796 
 26  H13  2.348000  1.466000  0.914000  H  1  MOL  0.256949 
@<TRIPOS>BOND
     1     1     2 ar  
     2     1     3 ar  
     3     1    14 1   
     4     2     5 ar  
     5     2    15 1   
     6     3     6 ar  
     7     3    16 1   
     8     4     5 ar  
     9     4     6 ar  
    10     4    17 1   
    11     5    10 1   
    12     6    13 1   
    13     7     8 1   
    14     7    11 am  
    15     7    12 2   
    16     8    18 1   
    17     8    19 1   
    18     8    20 1   
    19     9    13 1   
    20     9    21 1   
    21     9    22 1   
    22     9    23 1   
    23    10    11 1   
    24    10    24 1   
    25    10    25 1   
    26    11    26 1   
@<TRIPOS>SUBSTRUCTURE
     1 MOL         1 TEMP              0 ****  ****    0 ROOT
