@<TRIPOS>MOLECULE
MOL
   25    25     1     0     0
SMALL
No Charge or Current Charge


@<TRIPOS>ATOM
 1  C1  2.697000  -1.394000  0.428000  C.ar  1  MOL  -0.278609 
 2  C2  3.038000  -0.044000  0.417000  C.ar  1  MOL  -0.115248 
 3  C3  1.417000  -1.798000  0.040000  C.ar  1  MOL  -0.083163 
 4  C4  0.831000  0.507000  -0.370000  C.ar  1  MOL  -0.159854 
 5  C5  2.107000  0.928000  0.015000  C.ar  1  MOL  0.024516 
 6  C6  0.473000  -0.850000  -0.362000  C.ar  1  MOL  0.081986 
 7  C7  -2.718000  0.261000  0.006000  C.2  1  MOL  0.510929 
 8  C8  2.483000  2.391000  -0.004000  C.3  1  MOL  -0.181288 
 9  C9  -3.679000  0.582000  1.141000  C.3  1  MOL  -0.313908 
 10  C10  -0.927000  -1.266000  -0.774000  C.3  1  MOL  -0.189755 
 11  N1  -1.962000  -0.867000  0.179000  N.am  1  MOL  -0.353167 
 12  O1  -2.644000  0.965000  -0.995000  O.2  1  MOL  -0.514977 
 13  H1  3.429000  -2.136000  0.738000  H  1  MOL  0.172495 
 14  H2  4.037000  0.264000  0.719000  H  1  MOL  0.134619 
 15  H3  1.155000  -2.854000  0.045000  H  1  MOL  0.121963 
 16  H4  0.095000  1.240000  -0.691000  H  1  MOL  0.137701 
 17  H5  3.332000  2.577000  -0.674000  H  1  MOL  0.066149 
 18  H6  1.649000  3.014000  -0.341000  H  1  MOL  0.066149 
 19  H7  2.781000  2.741000  0.993000  H  1  MOL  0.066149 
 20  H8  -3.393000  1.540000  1.587000  H  1  MOL  0.111818 
 21  H9  -4.683000  0.704000  0.725000  H  1  MOL  0.116842 
 22  H10  -3.708000  -0.180000  1.927000  H  1  MOL  0.089295 
 23  H11  -1.205000  -0.799000  -1.722000  H  1  MOL  0.116205 
 24  H12  -0.974000  -2.353000  -0.903000  H  1  MOL  0.116205 
 25  H13  -1.966000  -1.317000  1.083000  H  1  MOL  0.256949 
@<TRIPOS>BOND
     1     1     2 ar  
     2     1     3 ar  
     3     1    13 1   
     4     2     5 ar  
     5     2    14 1   
     6     3     6 ar  
     7     3    15 1   
     8     4     5 ar  
     9     4     6 ar  
    10     4    16 1   
    11     5     8 1   
    12     6    10 1   
    13     7     9 1   
    14     7    11 am  
    15     7    12 2   
    16     8    17 1   
    17     8    18 1   
    18     8    19 1   
    19     9    20 1   
    20     9    21 1   
    21     9    22 1   
    22    10    11 1   
    23    10    23 1   
    24    10    24 1   
    25    11    25 1   
@<TRIPOS>SUBSTRUCTURE
     1 MOL         1 TEMP              0 ****  ****    0 ROOT
