@<TRIPOS>MOLECULE
MOL
   25    25     1     0     0
SMALL
No Charge or Current Charge


@<TRIPOS>ATOM
      1 C1           2.6970    -1.3940     0.4280 C.ar       1 MOL       0.000000
      2 C2           3.0380    -0.0440     0.4170 C.ar       1 MOL       0.000000
      3 C3           1.4170    -1.7980     0.0400 C.ar       1 MOL       0.000000
      4 C4           0.8310     0.5070    -0.3700 C.ar       1 MOL       0.000000
      5 C5           2.1070     0.9280     0.0150 C.ar       1 MOL       0.000000
      6 C6           0.4730    -0.8500    -0.3620 C.ar       1 MOL       0.000000
      7 C7          -2.7180     0.2610     0.0060 C.2        1 MOL       0.000000
      8 C8           2.4830     2.3910    -0.0040 C.3        1 MOL       0.000000
      9 C9          -3.6790     0.5820     1.1410 C.3        1 MOL       0.000000
     10 C10         -0.9270    -1.2660    -0.7740 C.3        1 MOL       0.000000
     11 N1          -1.9620    -0.8670     0.1790 N.am       1 MOL       0.000000
     12 O1          -2.6440     0.9650    -0.9950 O.2        1 MOL       0.000000
     13 H1           3.4290    -2.1360     0.7380 H          1 MOL       0.000000
     14 H2           4.0370     0.2640     0.7190 H          1 MOL       0.000000
     15 H3           1.1550    -2.8540     0.0450 H          1 MOL       0.000000
     16 H4           0.0950     1.2400    -0.6910 H          1 MOL       0.000000
     17 H5           3.3320     2.5770    -0.6740 H          1 MOL       0.000000
     18 H6           1.6490     3.0140    -0.3410 H          1 MOL       0.000000
     19 H7           2.7810     2.7410     0.9930 H          1 MOL       0.000000
     20 H8          -3.3930     1.5400     1.5870 H          1 MOL       0.000000
     21 H9          -4.6830     0.7040     0.7250 H          1 MOL       0.000000
     22 H10         -3.7080    -0.1800     1.9270 H          1 MOL       0.000000
     23 H11         -1.2050    -0.7990    -1.7220 H          1 MOL       0.000000
     24 H12         -0.9740    -2.3530    -0.9030 H          1 MOL       0.000000
     25 H13         -1.9660    -1.3170     1.0830 H          1 MOL       0.000000
@<TRIPOS>BOND
     1     1     2 ar  
     2     1     3 ar  
     3     1    13 1   
     4     2     5 ar  
     5     2    14 1   
     6     3     6 ar  
     7     3    15 1   
     8     4     5 ar  
     9     4     6 ar  
    10     4    16 1   
    11     5     8 1   
    12     6    10 1   
    13     7     9 1   
    14     7    11 am  
    15     7    12 2   
    16     8    17 1   
    17     8    18 1   
    18     8    19 1   
    19     9    20 1   
    20     9    21 1   
    21     9    22 1   
    22    10    11 1   
    23    10    23 1   
    24    10    24 1   
    25    11    25 1   
@<TRIPOS>SUBSTRUCTURE
     1 MOL         1 TEMP              0 ****  ****    0 ROOT
