@<TRIPOS>MOLECULE
MOL
   23    23     1     0     0
SMALL
No Charge or Current Charge


@<TRIPOS>ATOM
      1 C1          -3.9490    -0.6420     0.2580 C.1        1 MOL       0.000000
      2 C2          -2.3030     1.1830     0.3010 C.ar       1 MOL       0.000000
      3 C3          -1.6130    -1.0340    -0.4170 C.ar       1 MOL       0.000000
      4 C4          -1.0040     1.6410     0.0950 C.ar       1 MOL       0.000000
      5 C5          -0.3210    -0.5630    -0.6190 C.ar       1 MOL       0.000000
      6 C6          -2.6140    -0.1610     0.0470 C.ar       1 MOL       0.000000
      7 C7          -0.0010     0.7800    -0.3630 C.ar       1 MOL       0.000000
      8 C8           3.1280    -0.3930     0.0650 C.2        1 MOL       0.000000
      9 C9           4.0570    -0.8760     1.1680 C.3        1 MOL       0.000000
     10 C10          1.4180     1.2760    -0.5770 C.3        1 MOL       0.000000
     11 N1          -5.0310    -1.0320     0.4320 N.1        1 MOL       0.000000
     12 N2           2.3840     0.7170     0.3630 N.am       1 MOL       0.000000
     13 O1           3.0610    -0.9580    -1.0220 O.2        1 MOL       0.000000
     14 H1          -3.0770     1.8570     0.6560 H          1 MOL       0.000000
     15 H2          -1.8590    -2.0710    -0.6190 H          1 MOL       0.000000
     16 H3          -0.7690     2.6850     0.2900 H          1 MOL       0.000000
     17 H4           0.4540    -1.2320    -0.9830 H          1 MOL       0.000000
     18 H5           3.7620    -1.8890     1.4600 H          1 MOL       0.000000
     19 H6           5.0730    -0.9360     0.7670 H          1 MOL       0.000000
     20 H7           4.0610    -0.2370     2.0560 H          1 MOL       0.000000
     21 H8           1.7690     0.9930    -1.5730 H          1 MOL       0.000000
     22 H9           1.4500     2.3690    -0.5020 H          1 MOL       0.000000
     23 H10          2.3850     1.0670     1.3110 H          1 MOL       0.000000
@<TRIPOS>BOND
     1     1     6 1   
     2     1    11 3   
     3     2     4 ar  
     4     2     6 ar  
     5     2    14 1   
     6     3     5 ar  
     7     3     6 ar  
     8     3    15 1   
     9     4     7 ar  
    10     4    16 1   
    11     5     7 ar  
    12     5    17 1   
    13     7    10 1   
    14     8     9 1   
    15     8    12 am  
    16     8    13 2   
    17     9    18 1   
    18     9    19 1   
    19     9    20 1   
    20    10    12 1   
    21    10    21 1   
    22    10    22 1   
    23    12    23 1   
@<TRIPOS>SUBSTRUCTURE
     1 MOL         1 TEMP              0 ****  ****    0 ROOT
