@<TRIPOS>MOLECULE
MOL
   23    23     1     0     0
SMALL
No Charge or Current Charge


@<TRIPOS>ATOM
 1  C1  -3.949000  -0.642000  0.258000  C.1  1  MOL  0.335660 
 2  C2  -2.303000  1.183000  0.301000  C.ar  1  MOL  -0.175040 
 3  C3  -1.613000  -1.034000  -0.417000  C.ar  1  MOL  -0.175040 
 4  C4  -1.004000  1.641000  0.095000  C.ar  1  MOL  -0.149684 
 5  C5  -0.321000  -0.563000  -0.619000  C.ar  1  MOL  -0.149684 
 6  C6  -2.614000  -0.161000  0.047000  C.ar  1  MOL  0.028143 
 7  C7  -0.001000  0.780000  -0.363000  C.ar  1  MOL  0.060727 
 8  C8  3.128000  -0.393000  0.065000  C.2  1  MOL  0.419930 
 9  C9  4.057000  -0.876000  1.168000  C.3  1  MOL  -0.016420 
 10  C10  1.418000  1.276000  -0.577000  C.3  1  MOL  0.093380 
 11  N1  -5.031000  -1.032000  0.432000  N.1  1  MOL  -0.461361 
 12  N2  2.384000  0.717000  0.363000  N.am  1  MOL  -0.425469 
 13  O1  3.061000  -0.958000  -1.022000  O.2  1  MOL  -0.497640 
 14  H1  -3.077000  1.857000  0.656000  H  1  MOL  0.175546 
 15  H2  -1.859000  -2.071000  -0.619000  H  1  MOL  0.175546 
 16  H3  -0.769000  2.685000  0.290000  H  1  MOL  0.147926 
 17  H4  0.454000  -1.232000  -0.983000  H  1  MOL  0.147926 
 18  H5  3.762000  -1.889000  1.460000  H  1  MOL  0.031380 
 19  H6  5.073000  -0.936000  0.767000  H  1  MOL  0.031380 
 20  H7  4.061000  -0.237000  2.056000  H  1  MOL  0.031380 
 21  H8  1.769000  0.993000  -1.573000  H  1  MOL  0.055504 
 22  H9  1.450000  2.369000  -0.502000  H  1  MOL  0.055504 
 23  H10  2.385000  1.067000  1.311000  H  1  MOL  0.260405 
@<TRIPOS>BOND
     1     1     6 1   
     2     1    11 3   
     3     2     4 ar  
     4     2     6 ar  
     5     2    14 1   
     6     3     5 ar  
     7     3     6 ar  
     8     3    15 1   
     9     4     7 ar  
    10     4    16 1   
    11     5     7 ar  
    12     5    17 1   
    13     7    10 1   
    14     8     9 1   
    15     8    12 am  
    16     8    13 2   
    17     9    18 1   
    18     9    19 1   
    19     9    20 1   
    20    10    12 1   
    21    10    21 1   
    22    10    22 1   
    23    12    23 1   
@<TRIPOS>SUBSTRUCTURE
     1 MOL         1 TEMP              0 ****  ****    0 ROOT
