@<TRIPOS>MOLECULE
*****
 25 25 0 0 0
SMALL
GASTEIGER

@<TRIPOS>ATOM
      1 C           7.6927    0.3060   -1.3779 C.3     1  UNL1        0.0122
      2 C           6.6942    1.1164   -0.6073 C.2     1  UNL1        0.2104
      3 O           6.8014    2.3296   -0.4647 O.2     1  UNL1        0.2761
      4 N           5.7251    0.3636    0.0282 N.am    1  UNL1        0.3056
      5 C           4.6391    0.9810    0.7775 C.3     1  UNL1        0.0965
      6 C           5.0404    2.1801    1.6199 C.ar    1  UNL1        0.2008
      7 C           4.4234    3.4213    1.3693 C.ar    1  UNL1        0.0070
      8 C           4.8492    4.5660    2.0275 C.ar    1  UNL1        0.0503
      9 C           5.8669    4.4661    2.9589 C.ar    1  UNL1        0.0021
     10 C           6.4460    3.2300    3.2045 C.ar    1  UNL1        0.1712
     11 N           6.0483    2.1166    2.5433 N.ar    1  UNL1        0.2026
     12 C           6.7941    0.8659    2.7889 C.3     1  UNL1        0.1407
     13 H           8.5146    0.9571   -1.6904 H       1  UNL1        0.0322
     14 H           7.2194   -0.1292   -2.2594 H       1  UNL1        0.0322
     15 H           8.1012   -0.4804   -0.7364 H       1  UNL1        0.0322
     16 H           5.5533   -0.5620   -0.3547 H       1  UNL1        0.1492
     17 H           4.2149    0.2118    1.4328 H       1  UNL1        0.0572
     18 H           3.8615    1.2519    0.0538 H       1  UNL1        0.0572
     19 H           3.6476    3.5091    0.6096 H       1  UNL1        0.0680
     20 H           4.4098    5.5336    1.7907 H       1  UNL1        0.0621
     21 H           6.2270    5.3524    3.4757 H       1  UNL1        0.0677
     22 H           7.2550    3.1287    3.9225 H       1  UNL1        0.1376
     23 H           7.4805    0.9967    3.6291 H       1  UNL1        0.0993
     24 H           7.3905    0.6329    1.9064 H       1  UNL1        0.0993
     25 H           6.0833    0.0713    3.0242 H       1  UNL1        0.0993
@<TRIPOS>BOND
     1     1     2    1
     2     2     3    2
     3     2     4   am
     4     4     5    1
     5     5     6    1
     6     6     7   ar
     7     7     8   ar
     8     8     9   ar
     9     9    10   ar
    10    10    11   ar
    11     6    11   ar
    12    11    12    1
    13     1    13    1
    14     1    14    1
    15     1    15    1
    16     4    16    1
    17     5    17    1
    18     5    18    1
    19     7    19    1
    20     8    20    1
    21     9    21    1
    22    10    22    1
    23    12    23    1
    24    12    24    1
    25    12    25    1
