@<TRIPOS>MOLECULE
MOL
   22    22     1     0     0
SMALL
No Charge or Current Charge


@<TRIPOS>ATOM
 1  C1  3.225000  -0.736000  0.413000  C.ar  1  MOL  -0.088320 
 2  C2  2.144000  -1.526000  0.012000  C.ar  1  MOL  -0.211022 
 3  C3  3.099000  0.653000  0.426000  C.ar  1  MOL  -0.211022 
 4  C4  0.944000  -0.931000  -0.373000  C.ar  1  MOL  -0.109027 
 5  C5  1.895000  1.248000  0.041000  C.ar  1  MOL  -0.109027 
 6  C6  0.807000  0.465000  -0.361000  C.ar  1  MOL  0.035245 
 7  C7  -2.516000  -0.124000  0.005000  C.2  1  MOL  0.419930 
 8  C8  -3.520000  -0.293000  1.137000  C.3  1  MOL  -0.016420 
 9  C9  -0.508000  1.105000  -0.767000  C.3  1  MOL  0.052726 
 10  N1  -1.593000  0.871000  0.183000  N.am  1  MOL  -0.425469 
 11  O1  -2.550000  -0.828000  -0.998000  O.2  1  MOL  -0.497640 
 12  H1  4.161000  -1.202000  0.711000  H  1  MOL  0.129761 
 13  H2  2.239000  -2.609000  -0.006000  H  1  MOL  0.153461 
 14  H3  3.936000  1.275000  0.734000  H  1  MOL  0.153461 
 15  H4  0.103000  -1.542000  -0.692000  H  1  MOL  0.127754 
 16  H5  1.802000  2.332000  0.048000  H  1  MOL  0.127754 
 17  H6  -4.529000  -0.258000  0.718000  H  1  MOL  0.031380 
 18  H7  -3.386000  -1.284000  1.583000  H  1  MOL  0.031380 
 19  H8  -3.433000  0.464000  1.923000  H  1  MOL  0.031380 
 20  H9  -0.379000  2.187000  -0.889000  H  1  MOL  0.056655 
 21  H10  -0.856000  0.696000  -1.719000  H  1  MOL  0.056655 
 22  H11  -1.529000  1.315000  1.089000  H  1  MOL  0.260405 
@<TRIPOS>BOND
     1     1     2 ar  
     2     1     3 ar  
     3     1    12 1   
     4     2     4 ar  
     5     2    13 1   
     6     3     5 ar  
     7     3    14 1   
     8     4     6 ar  
     9     4    15 1   
    10     5     6 ar  
    11     5    16 1   
    12     6     9 1   
    13     7     8 1   
    14     7    10 am  
    15     7    11 2   
    16     8    17 1   
    17     8    18 1   
    18     8    19 1   
    19     9    10 1   
    20     9    20 1   
    21     9    21 1   
    22    10    22 1   
@<TRIPOS>SUBSTRUCTURE
     1 MOL         1 TEMP              0 ****  ****    0 ROOT
