@<TRIPOS>MOLECULE
MOL
   21    21     1     0     0
SMALL
No Charge or Current Charge


@<TRIPOS>ATOM
      1 C1           2.6160    -0.0870    -0.6370 C.ar       1 MOL       0.000000
      2 C2           2.6850    -1.4800    -0.6540 C.ar       1 MOL       0.000000
      3 C3           0.7120    -1.6850     0.4720 C.ar       1 MOL       0.000000
      4 C4           0.5240    -0.2970     0.5710 C.ar       1 MOL       0.000000
      5 C5           1.5140     0.4950    -0.0170 C.ar       1 MOL       0.000000
      6 C6          -2.6720    -0.2090    -0.1330 C.2        1 MOL       0.000000
      7 C7          -3.6370     0.3330    -1.1760 C.3        1 MOL       0.000000
      8 C8          -0.7020     0.2650     1.2630 C.3        1 MOL       0.000000
      9 N1           1.7550    -2.2770    -0.1160 N.ar       1 MOL       0.000000
     10 N2          -1.7510     0.6880     0.3430 N.am       1 MOL       0.000000
     11 O1          -2.7220    -1.3670     0.2640 O.2        1 MOL       0.000000
     12 Cl1          1.3840     2.2540     0.0070 Cl         1 MOL       0.000000
     13 H1           3.3900     0.5210    -1.0900 H          1 MOL       0.000000
     14 H2           3.5320    -1.9740    -1.1270 H          1 MOL       0.000000
     15 H3          -0.0470    -2.3430     0.8910 H          1 MOL       0.000000
     16 H4          -3.4430    -0.1660    -2.1310 H          1 MOL       0.000000
     17 H5          -4.6570     0.0770    -0.8750 H          1 MOL       0.000000
     18 H6          -3.5670     1.4150    -1.3210 H          1 MOL       0.000000
     19 H7          -1.1360    -0.5050     1.9030 H          1 MOL       0.000000
     20 H8          -0.4290     1.1200     1.8880 H          1 MOL       0.000000
     21 H9          -1.6600     1.5910    -0.1010 H          1 MOL       0.000000
@<TRIPOS>BOND
     1     1     2 ar  
     2     1     5 ar  
     3     1    13 1   
     4     2     9 ar  
     5     2    14 1   
     6     3     4 ar  
     7     3     9 ar  
     8     3    15 1   
     9     4     5 ar  
    10     4     8 1   
    11     5    12 1   
    12     6     7 1   
    13     6    10 am  
    14     6    11 2   
    15     7    16 1   
    16     7    17 1   
    17     7    18 1   
    18     8    10 1   
    19     8    19 1   
    20     8    20 1   
    21    10    21 1   
@<TRIPOS>SUBSTRUCTURE
     1 MOL         1 TEMP              0 ****  ****    0 ROOT
