@<TRIPOS>MOLECULE
MOL
   21    21     1     0     0
SMALL
No Charge or Current Charge


@<TRIPOS>ATOM
 1  C1  2.616000  -0.087000  -0.637000  C.ar  1  MOL  -0.209182 
 2  C2  2.685000  -1.480000  -0.654000  C.ar  1  MOL  0.225929 
 3  C3  0.712000  -1.685000  0.472000  C.ar  1  MOL  0.224906 
 4  C4  0.524000  -0.297000  0.571000  C.ar  1  MOL  0.078348 
 5  C5  1.514000  0.495000  -0.017000  C.ar  1  MOL  0.006678 
 6  C6  -2.672000  -0.209000  -0.133000  C.2  1  MOL  0.510929 
 7  C7  -3.637000  0.333000  -1.176000  C.3  1  MOL  -0.313908 
 8  C8  -0.702000  0.265000  1.263000  C.3  1  MOL  -0.160751 
 9  N1  1.755000  -2.277000  -0.116000  N.ar  1  MOL  -0.547361 
 10  N2  -1.751000  0.688000  0.343000  N.am  1  MOL  -0.353167 
 11  O1  -2.722000  -1.367000  0.264000  O.2  1  MOL  -0.514977 
 12  Cl1  1.384000  2.254000  0.007000  Cl  1  MOL  -0.075903 
 13  H1  3.390000  0.521000  -1.090000  H  1  MOL  0.142275 
 14  H2  3.532000  -1.974000  -1.127000  H  1  MOL  0.098650 
 15  H3  -0.047000  -2.343000  0.891000  H  1  MOL  0.080963 
 16  H4  -3.443000  -0.166000  -2.131000  H  1  MOL  0.111818 
 17  H5  -4.657000  0.077000  -0.875000  H  1  MOL  0.116842 
 18  H6  -3.567000  1.415000  -1.321000  H  1  MOL  0.089295 
 19  H7  -1.136000  -0.505000  1.903000  H  1  MOL  0.115834 
 20  H8  -0.429000  1.120000  1.888000  H  1  MOL  0.115834 
 21  H9  -1.660000  1.591000  -0.101000  H  1  MOL  0.256949 
@<TRIPOS>BOND
     1     1     2 ar  
     2     1     5 ar  
     3     1    13 1   
     4     2     9 ar  
     5     2    14 1   
     6     3     4 ar  
     7     3     9 ar  
     8     3    15 1   
     9     4     5 ar  
    10     4     8 1   
    11     5    12 1   
    12     6     7 1   
    13     6    10 am  
    14     6    11 2   
    15     7    16 1   
    16     7    17 1   
    17     7    18 1   
    18     8    10 1   
    19     8    19 1   
    20     8    20 1   
    21    10    21 1   
@<TRIPOS>SUBSTRUCTURE
     1 MOL         1 TEMP              0 ****  ****    0 ROOT
