@<TRIPOS>MOLECULE
MOL
   35    34     1     0     0
SMALL
No Charge or Current Charge


@<TRIPOS>ATOM
 1  C1  -0.627000  1.011000  -0.430000  C.2  1  MOL  0.636107 
 2  C2  -1.652000  -2.320000  -1.291000  C.3  1  MOL  -0.195297 
 3  C3  -3.390000  -2.385000  0.541000  C.3  1  MOL  -0.195297 
 4  C4  -1.874000  3.065000  -0.826000  C.3  1  MOL  -0.071473 
 5  C5  -1.636000  2.283000  1.492000  C.3  1  MOL  -0.089282 
 6  C6  2.827000  1.169000  -0.675000  C.3  1  MOL  -0.412669 
 7  C7  -1.300000  -1.061000  0.940000  C.3  1  MOL  -0.083867 
 8  C8  -0.144000  -0.111000  0.520000  C.3  1  MOL  -0.206990 
 9  C9  -2.299000  -1.539000  -0.136000  C.3  1  MOL  0.213216 
 10  N1  0.948000  -0.858000  -0.111000  N.3  1  MOL  -0.497998 
 11  N2  -1.326000  2.066000  0.086000  N.am  1  MOL  -0.344286 
 12  O1  -0.388000  0.911000  -1.636000  O.2  1  MOL  -0.560519 
 13  O2  3.374000  -1.404000  -0.470000  O.2  1  MOL  -0.518639 
 14  O3  2.635000  -0.127000  1.626000  O.2  1  MOL  -0.504040 
 15  S1  2.541000  -0.398000  0.188000  S.o2  1  MOL  0.947437 
 16  H1  -1.019000  -3.134000  -0.918000  H  1  MOL  0.045643 
 17  H2  -2.425000  -2.763000  -1.930000  H  1  MOL  0.045643 
 18  H3  -1.046000  -1.669000  -1.928000  H  1  MOL  0.045643 
 19  H4  -2.964000  -3.298000  0.976000  H  1  MOL  0.045643 
 20  H5  -3.889000  -1.834000  1.348000  H  1  MOL  0.045643 
 21  H6  -4.156000  -2.687000  -0.182000  H  1  MOL  0.045643 
 22  H7  -2.967000  3.102000  -0.738000  H  1  MOL  0.087465 
 23  H8  -1.598000  2.794000  -1.844000  H  1  MOL  0.084069 
 24  H9  -1.473000  4.058000  -0.586000  H  1  MOL  0.088028 
 25  H10  -1.379000  3.313000  1.768000  H  1  MOL  0.094118 
 26  H11  -1.071000  1.612000  2.137000  H  1  MOL  0.067267 
 27  H12  -2.707000  2.136000  1.688000  H  1  MOL  0.084095 
 28  H13  3.879000  1.421000  -0.525000  H  1  MOL  0.187843 
 29  H14  2.609000  1.038000  -1.736000  H  1  MOL  0.155917 
 30  H15  2.189000  1.943000  -0.246000  H  1  MOL  0.144151 
 31  H16  -0.823000  -1.929000  1.411000  H  1  MOL  0.066366 
 32  H17  -1.875000  -0.556000  1.727000  H  1  MOL  0.066366 
 33  H18  0.279000  0.302000  1.439000  H  1  MOL  0.157555 
 34  H19  -2.787000  -0.651000  -0.566000  H  1  MOL  -0.019955 
 35  H20  0.804000  -0.981000  -1.112000  H  1  MOL  0.346457 
@<TRIPOS>BOND
     1     1     8 1   
     2     1    11 am  
     3     1    12 2   
     4     2     9 1   
     5     2    16 1   
     6     2    17 1   
     7     2    18 1   
     8     3     9 1   
     9     3    19 1   
    10     3    20 1   
    11     3    21 1   
    12     4    11 1   
    13     4    22 1   
    14     4    23 1   
    15     4    24 1   
    16     5    11 1   
    17     5    25 1   
    18     5    26 1   
    19     5    27 1   
    20     6    15 1   
    21     6    28 1   
    22     6    29 1   
    23     6    30 1   
    24     7     8 1   
    25     7     9 1   
    26     7    31 1   
    27     7    32 1   
    28     8    10 1   
    29     8    33 1   
    30     9    34 1   
    31    10    15 1   
    32    10    35 1   
    33    13    15 2   
    34    14    15 2   
@<TRIPOS>SUBSTRUCTURE
     1 MOL         1 TEMP              0 ****  ****    0 ROOT
