@<TRIPOS>MOLECULE
MOL
   35    34     1     0     0
SMALL
No Charge or Current Charge


@<TRIPOS>ATOM
      1 C1          -0.6270     1.0110    -0.4300 C.2        1 MOL       0.000000
      2 C2          -1.6520    -2.3200    -1.2910 C.3        1 MOL       0.000000
      3 C3          -3.3900    -2.3850     0.5410 C.3        1 MOL       0.000000
      4 C4          -1.8740     3.0650    -0.8260 C.3        1 MOL       0.000000
      5 C5          -1.6360     2.2830     1.4920 C.3        1 MOL       0.000000
      6 C6           2.8270     1.1690    -0.6750 C.3        1 MOL       0.000000
      7 C7          -1.3000    -1.0610     0.9400 C.3        1 MOL       0.000000
      8 C8          -0.1440    -0.1110     0.5200 C.3        1 MOL       0.000000
      9 C9          -2.2990    -1.5390    -0.1360 C.3        1 MOL       0.000000
     10 N1           0.9480    -0.8580    -0.1110 N.3        1 MOL       0.000000
     11 N2          -1.3260     2.0660     0.0860 N.am       1 MOL       0.000000
     12 O1          -0.3880     0.9110    -1.6360 O.2        1 MOL       0.000000
     13 O2           3.3740    -1.4040    -0.4700 O.2        1 MOL       0.000000
     14 O3           2.6350    -0.1270     1.6260 O.2        1 MOL       0.000000
     15 S1           2.5410    -0.3980     0.1880 S.o2       1 MOL       0.000000
     16 H1          -1.0190    -3.1340    -0.9180 H          1 MOL       0.000000
     17 H2          -2.4250    -2.7630    -1.9300 H          1 MOL       0.000000
     18 H3          -1.0460    -1.6690    -1.9280 H          1 MOL       0.000000
     19 H4          -2.9640    -3.2980     0.9760 H          1 MOL       0.000000
     20 H5          -3.8890    -1.8340     1.3480 H          1 MOL       0.000000
     21 H6          -4.1560    -2.6870    -0.1820 H          1 MOL       0.000000
     22 H7          -2.9670     3.1020    -0.7380 H          1 MOL       0.000000
     23 H8          -1.5980     2.7940    -1.8440 H          1 MOL       0.000000
     24 H9          -1.4730     4.0580    -0.5860 H          1 MOL       0.000000
     25 H10         -1.3790     3.3130     1.7680 H          1 MOL       0.000000
     26 H11         -1.0710     1.6120     2.1370 H          1 MOL       0.000000
     27 H12         -2.7070     2.1360     1.6880 H          1 MOL       0.000000
     28 H13          3.8790     1.4210    -0.5250 H          1 MOL       0.000000
     29 H14          2.6090     1.0380    -1.7360 H          1 MOL       0.000000
     30 H15          2.1890     1.9430    -0.2460 H          1 MOL       0.000000
     31 H16         -0.8230    -1.9290     1.4110 H          1 MOL       0.000000
     32 H17         -1.8750    -0.5560     1.7270 H          1 MOL       0.000000
     33 H18          0.2790     0.3020     1.4390 H          1 MOL       0.000000
     34 H19         -2.7870    -0.6510    -0.5660 H          1 MOL       0.000000
     35 H20          0.8040    -0.9810    -1.1120 H          1 MOL       0.000000
@<TRIPOS>BOND
     1     1     8 1   
     2     1    11 am  
     3     1    12 2   
     4     2     9 1   
     5     2    16 1   
     6     2    17 1   
     7     2    18 1   
     8     3     9 1   
     9     3    19 1   
    10     3    20 1   
    11     3    21 1   
    12     4    11 1   
    13     4    22 1   
    14     4    23 1   
    15     4    24 1   
    16     5    11 1   
    17     5    25 1   
    18     5    26 1   
    19     5    27 1   
    20     6    15 1   
    21     6    28 1   
    22     6    29 1   
    23     6    30 1   
    24     7     8 1   
    25     7     9 1   
    26     7    31 1   
    27     7    32 1   
    28     8    10 1   
    29     8    33 1   
    30     9    34 1   
    31    10    15 1   
    32    10    35 1   
    33    13    15 2   
    34    14    15 2   
@<TRIPOS>SUBSTRUCTURE
     1 MOL         1 TEMP              0 ****  ****    0 ROOT
