@<TRIPOS>MOLECULE
MOL
   26    26     1     0     0
SMALL
No Charge or Current Charge


@<TRIPOS>ATOM
      1 C1           1.2850     0.0650     0.1990 C.2        1 MOL       0.000000
      2 C2          -1.7000    -1.2350    -0.0000 C.2        1 MOL       0.000000
      3 C3          -0.9170     2.3430     0.2190 C.3        1 MOL       0.000000
      4 C4          -0.0260     1.9040    -0.9550 C.3        1 MOL       0.000000
      5 C5          -1.9170     1.1880     0.3630 C.3        1 MOL       0.000000
      6 C6           0.1040     0.3740    -0.7460 C.3        1 MOL       0.000000
      7 C7          -0.8640    -2.3960    -0.5230 C.3        1 MOL       0.000000
      8 C8           3.6680    -0.6030     0.2690 C.3        1 MOL       0.000000
      9 N1          -1.1840     0.0240    -0.1590 N.am       1 MOL       0.000000
     10 N2           2.4220    -0.3500    -0.4350 N.am       1 MOL       0.000000
     11 O1           1.2070     0.2290     1.4100 O.2        1 MOL       0.000000
     12 O2          -2.7950    -1.4080     0.5250 O.2        1 MOL       0.000000
     13 H1          -0.3140     2.4290     1.1270 H          1 MOL       0.000000
     14 H2          -1.4100     3.3030     0.0360 H          1 MOL       0.000000
     15 H3          -0.5270     2.0900    -1.9130 H          1 MOL       0.000000
     16 H4           0.9460     2.4060    -0.9790 H          1 MOL       0.000000
     17 H5          -2.2230     1.0050     1.3960 H          1 MOL       0.000000
     18 H6          -2.8280     1.3470    -0.2280 H          1 MOL       0.000000
     19 H7           0.2480    -0.1420    -1.7040 H          1 MOL       0.000000
     20 H8           0.1240    -2.4310    -0.0520 H          1 MOL       0.000000
     21 H9          -0.7170    -2.3270    -1.6080 H          1 MOL       0.000000
     22 H10         -1.3990    -3.3200    -0.2990 H          1 MOL       0.000000
     23 H11          4.4610     0.0740    -0.0690 H          1 MOL       0.000000
     24 H12          4.0000    -1.6380     0.1230 H          1 MOL       0.000000
     25 H13          3.4800    -0.4340     1.3300 H          1 MOL       0.000000
     26 H14          2.3990    -0.4800    -1.4360 H          1 MOL       0.000000
@<TRIPOS>BOND
     1     1     6 1   
     2     1    10 am  
     3     1    11 2   
     4     2     7 1   
     5     2     9 am  
     6     2    12 2   
     7     3     4 1   
     8     3     5 1   
     9     3    13 1   
    10     3    14 1   
    11     4     6 1   
    12     4    15 1   
    13     4    16 1   
    14     5     9 1   
    15     5    17 1   
    16     5    18 1   
    17     6     9 1   
    18     6    19 1   
    19     7    20 1   
    20     7    21 1   
    21     7    22 1   
    22     8    10 1   
    23     8    23 1   
    24     8    24 1   
    25     8    25 1   
    26    10    26 1   
@<TRIPOS>SUBSTRUCTURE
     1 MOL         1 TEMP              0 ****  ****    0 ROOT
