@<TRIPOS>MOLECULE
MOL
   26    26     1     0     0
SMALL
No Charge or Current Charge


@<TRIPOS>ATOM
 1  C1  1.285000  0.065000  0.199000  C.2  1  MOL  0.596329 
 2  C2  -1.700000  -1.235000  -0.000000  C.2  1  MOL  0.562201 
 3  C3  -0.917000  2.343000  0.219000  C.3  1  MOL  0.009415 
 4  C4  -0.026000  1.904000  -0.955000  C.3  1  MOL  -0.035053 
 5  C5  -1.917000  1.188000  0.363000  C.3  1  MOL  0.005794 
 6  C6  0.104000  0.374000  -0.746000  C.3  1  MOL  -0.231228 
 7  C7  -0.864000  -2.396000  -0.523000  C.3  1  MOL  -0.157534 
 8  C8  3.668000  -0.603000  0.269000  C.3  1  MOL  -0.006198 
 9  N1  -1.184000  0.024000  -0.159000  N.am  1  MOL  -0.199344 
 10  N2  2.422000  -0.350000  -0.435000  N.am  1  MOL  -0.470020 
 11  O1  1.207000  0.229000  1.410000  O.2  1  MOL  -0.524049 
 12  O2  -2.795000  -1.408000  0.525000  O.2  1  MOL  -0.565919 
 13  H1  -0.314000  2.429000  1.127000  H  1  MOL  0.034723 
 14  H2  -1.410000  3.303000  0.036000  H  1  MOL  0.034723 
 15  H3  -0.527000  2.090000  -1.913000  H  1  MOL  0.042646 
 16  H4  0.946000  2.406000  -0.979000  H  1  MOL  0.042646 
 17  H5  -2.223000  1.005000  1.396000  H  1  MOL  0.052941 
 18  H6  -2.828000  1.347000  -0.228000  H  1  MOL  0.052941 
 19  H7  0.248000  -0.142000  -1.704000  H  1  MOL  0.117515 
 20  H8  0.124000  -2.431000  -0.052000  H  1  MOL  0.062556 
 21  H9  -0.717000  -2.327000  -1.608000  H  1  MOL  0.040540 
 22  H10  -1.399000  -3.320000  -0.299000  H  1  MOL  0.058157 
 23  H11  4.461000  0.074000  -0.069000  H  1  MOL  0.068972 
 24  H12  4.000000  -1.638000  0.123000  H  1  MOL  0.058547 
 25  H13  3.480000  -0.434000  1.330000  H  1  MOL  0.062004 
 26  H14  2.399000  -0.480000  -1.436000  H  1  MOL  0.286695 
@<TRIPOS>BOND
     1     1     6 1   
     2     1    10 am  
     3     1    11 2   
     4     2     7 1   
     5     2     9 am  
     6     2    12 2   
     7     3     4 1   
     8     3     5 1   
     9     3    13 1   
    10     3    14 1   
    11     4     6 1   
    12     4    15 1   
    13     4    16 1   
    14     5     9 1   
    15     5    17 1   
    16     5    18 1   
    17     6     9 1   
    18     6    19 1   
    19     7    20 1   
    20     7    21 1   
    21     7    22 1   
    22     8    10 1   
    23     8    23 1   
    24     8    24 1   
    25     8    25 1   
    26    10    26 1   
@<TRIPOS>SUBSTRUCTURE
     1 MOL         1 TEMP              0 ****  ****    0 ROOT
