@<TRIPOS>MOLECULE
MOL
   42    42     1     0     0
SMALL
No Charge or Current Charge


@<TRIPOS>ATOM
      1 C1           0.4240     1.5350    -0.3440 C.2        1 MOL       0.000000
      2 C2           2.9950    -2.0500    -0.3670 C.2        1 MOL       0.000000
      3 C3          -3.8210    -1.1140    -0.8920 C.3        1 MOL       0.000000
      4 C4          -3.0740     0.2250    -0.7960 C.3        1 MOL       0.000000
      5 C5          -2.9470    -2.2810    -0.4080 C.3        1 MOL       0.000000
      6 C6          -2.5310     0.4620     0.6230 C.3        1 MOL       0.000000
      7 C7          -2.4080    -2.0280     1.0100 C.3        1 MOL       0.000000
      8 C8          -1.6380    -0.6930     1.1350 C.3        1 MOL       0.000000
      9 C9           0.3660     3.8880    -0.9810 C.3        1 MOL       0.000000
     10 C10          0.8310     3.3630     1.3660 C.3        1 MOL       0.000000
     11 C11          2.6220    -0.5710    -0.5700 C.3        1 MOL       0.000000
     12 C12         -0.2490    -0.7920     0.4630 C.3        1 MOL       0.000000
     13 C13          0.6670     0.4220     0.7020 C.3        1 MOL       0.000000
     14 N1           0.5630     2.8520     0.0290 N.am       1 MOL       0.000000
     15 N2           2.1020     0.0270     0.6770 N.3        1 MOL       0.000000
     16 O1           3.3780    -2.7570    -1.2670 O.2        1 MOL       0.000000
     17 O2           0.1930     1.2230    -1.5130 O.2        1 MOL       0.000000
     18 O3           2.8730    -2.4670     0.9060 O.3        1 MOL       0.000000
     19 H1          -4.7300    -1.0660    -0.2720 H          1 MOL       0.000000
     20 H2          -4.1550    -1.2900    -1.9220 H          1 MOL       0.000000
     21 H3          -2.2460     0.2450    -1.5150 H          1 MOL       0.000000
     22 H4          -3.7430     1.0510    -1.0730 H          1 MOL       0.000000
     23 H5          -3.5210    -3.2170    -0.4210 H          1 MOL       0.000000
     24 H6          -2.1120    -2.4250    -1.1070 H          1 MOL       0.000000
     25 H7          -1.9960     1.4200     0.6680 H          1 MOL       0.000000
     26 H8          -3.3800     0.5600     1.3150 H          1 MOL       0.000000
     27 H9          -3.2570    -2.0030     1.7090 H          1 MOL       0.000000
     28 H10         -1.7680    -2.8610     1.3280 H          1 MOL       0.000000
     29 H11         -1.4550    -0.5200     2.2080 H          1 MOL       0.000000
     30 H12         -0.4660     4.5440    -0.6950 H          1 MOL       0.000000
     31 H13          0.1430     3.4070    -1.9320 H          1 MOL       0.000000
     32 H14          1.2710     4.5010    -1.0800 H          1 MOL       0.000000
     33 H15          1.6560     4.0860     1.3250 H          1 MOL       0.000000
     34 H16          1.1140     2.5720     2.0580 H          1 MOL       0.000000
     35 H17         -0.0490     3.8800     1.7740 H          1 MOL       0.000000
     36 H18          1.9110    -0.4950    -1.3970 H          1 MOL       0.000000
     37 H19          3.5300    -0.0520    -0.8940 H          1 MOL       0.000000
     38 H20          0.2590    -1.6690     0.8800 H          1 MOL       0.000000
     39 H21         -0.3440    -0.9570    -0.6130 H          1 MOL       0.000000
     40 H22          0.4830     0.7800     1.7180 H          1 MOL       0.000000
     41 H23          2.5540    -1.6650     1.3930 H          1 MOL       0.000000
     42 H24          2.6750     0.8230     0.9460 H          1 MOL       0.000000
@<TRIPOS>BOND
     1     1    13 1   
     2     1    14 am  
     3     1    17 2   
     4     2    11 1   
     5     2    16 2   
     6     2    18 1   
     7     3     4 1   
     8     3     5 1   
     9     3    19 1   
    10     3    20 1   
    11     4     6 1   
    12     4    21 1   
    13     4    22 1   
    14     5     7 1   
    15     5    23 1   
    16     5    24 1   
    17     6     8 1   
    18     6    25 1   
    19     6    26 1   
    20     7     8 1   
    21     7    27 1   
    22     7    28 1   
    23     8    12 1   
    24     8    29 1   
    25     9    14 1   
    26     9    30 1   
    27     9    31 1   
    28     9    32 1   
    29    10    14 1   
    30    10    33 1   
    31    10    34 1   
    32    10    35 1   
    33    11    15 1   
    34    11    36 1   
    35    11    37 1   
    36    12    13 1   
    37    12    38 1   
    38    12    39 1   
    39    13    15 1   
    40    13    40 1   
    41    15    42 1   
    42    18    41 1   
@<TRIPOS>SUBSTRUCTURE
     1 MOL         1 TEMP              0 ****  ****    0 ROOT
