@<TRIPOS>MOLECULE
*****
 21 21 0 0 0
SMALL
GASTEIGER

@<TRIPOS>ATOM
      1 C           1.1762   -0.0021   -0.0320 C.3     1  UNL1        0.0122
      2 C           2.6783   -0.0671   -0.0741 C.2     1  UNL1        0.2102
      3 O           3.2913   -1.0014   -0.5783 O.2     1  UNL1        0.2761
      4 N           3.2834    1.0316    0.4866 N.am    1  UNL1        0.3114
      5 C           4.7243    1.1495    0.5306 C.3     1  UNL1        0.0369
      6 C           5.1763    2.4669    1.1065 C.ar    1  UNL1        0.0275
      7 C           4.5249    3.6662    0.7951 C.ar    1  UNL1        0.0389
      8 C           5.0029    4.8499    1.3350 C.ar    1  UNL1        0.0279
      9 N           6.0788    4.9239    2.1441 N.ar    1  UNL1        0.2632
     10 C           6.7129    3.7637    2.4143 C.ar    1  UNL1        0.0279
     11 C           6.3111    2.5303    1.9220 C.ar    1  UNL1        0.0389
     12 H           0.7546   -0.9103   -0.4713 H       1  UNL1        0.0322
     13 H           0.8307    0.8613   -0.6079 H       1  UNL1        0.0322
     14 H           0.8327    0.0824    1.0026 H       1  UNL1        0.0322
     15 H           2.7233    1.6723    1.0325 H       1  UNL1        0.1490
     16 H           5.1179    1.0369   -0.4862 H       1  UNL1        0.0512
     17 H           5.1014    0.3128    1.1310 H       1  UNL1        0.0512
     18 H           3.6608    3.6885    0.1393 H       1  UNL1        0.0636
     19 H           4.5188    5.7978    1.1183 H       1  UNL1        0.0829
     20 H           7.5850    3.8540    3.0561 H       1  UNL1        0.0829
     21 H           6.8812    1.6410    2.1723 H       1  UNL1        0.0636
@<TRIPOS>BOND
     1     1     2    1
     2     2     3    2
     3     2     4   am
     4     4     5    1
     5     5     6    1
     6     6     7   ar
     7     7     8   ar
     8     8     9   ar
     9     9    10   ar
    10    10    11   ar
    11     6    11   ar
    12     1    12    1
    13     1    13    1
    14     1    14    1
    15     4    15    1
    16     5    16    1
    17     5    17    1
    18     7    18    1
    19     8    19    1
    20    10    20    1
    21    11    21    1
