@<TRIPOS>MOLECULE
MOL
   26    26     1     0     0
SMALL
No Charge or Current Charge


@<TRIPOS>ATOM
 1  C1  -1.111000  1.883000  0.036000  C.ar  1  MOL  -0.251606 
 2  C2  0.051000  1.226000  -0.352000  C.ar  1  MOL  -0.150533 
 3  C3  -2.313000  1.188000  0.214000  C.ar  1  MOL  -0.130332 
 4  C4  -1.168000  -0.860000  -0.393000  C.ar  1  MOL  -0.095729 
 5  C5  0.024000  -0.163000  -0.568000  C.ar  1  MOL  0.056246 
 6  C6  -2.340000  -0.193000  -0.003000  C.ar  1  MOL  0.162078 
 7  C7  3.346000  -0.079000  0.141000  C.2  1  MOL  0.510929 
 8  C8  4.241000  -0.216000  1.365000  C.3  1  MOL  -0.313908 
 9  C9  -4.665000  -0.366000  0.518000  C.3  1  MOL  0.003458 
 10  C10  1.290000  -0.894000  -0.977000  C.3  1  MOL  -0.169607 
 11  N1  2.295000  -0.954000  0.082000  N.am  1  MOL  -0.353167 
 12  O1  3.569000  0.755000  -0.730000  O.2  1  MOL  -0.514977 
 13  O2  -3.447000  -0.983000  0.136000  O.3  1  MOL  -0.317269 
 14  H1  -1.095000  2.958000  0.199000  H  1  MOL  0.177986 
 15  H2  0.979000  1.772000  -0.495000  H  1  MOL  0.136502 
 16  H3  -3.205000  1.726000  0.514000  H  1  MOL  0.128386 
 17  H4  -1.221000  -1.933000  -0.559000  H  1  MOL  0.101420 
 18  H5  5.277000  -0.319000  1.031000  H  1  MOL  0.111818 
 19  H6  4.178000  0.705000  1.954000  H  1  MOL  0.116842 
 20  H7  3.986000  -1.065000  2.007000  H  1  MOL  0.089295 
 21  H8  -5.405000  -1.167000  0.564000  H  1  MOL  0.070542 
 22  H9  -4.988000  0.383000  -0.217000  H  1  MOL  0.070542 
 23  H10  -4.586000  0.110000  1.504000  H  1  MOL  0.070542 
 24  H11  1.051000  -1.916000  -1.291000  H  1  MOL  0.116796 
 25  H12  1.773000  -0.385000  -1.814000  H  1  MOL  0.116796 
 26  H13  2.087000  -1.514000  0.896000  H  1  MOL  0.256949 
@<TRIPOS>BOND
     1     1     2 ar  
     2     1     3 ar  
     3     1    14 1   
     4     2     5 ar  
     5     2    15 1   
     6     3     6 ar  
     7     3    16 1   
     8     4     5 ar  
     9     4     6 ar  
    10     4    17 1   
    11     5    10 1   
    12     6    13 1   
    13     7     8 1   
    14     7    11 am  
    15     7    12 2   
    16     8    18 1   
    17     8    19 1   
    18     8    20 1   
    19     9    13 1   
    20     9    21 1   
    21     9    22 1   
    22     9    23 1   
    23    10    11 1   
    24    10    24 1   
    25    10    25 1   
    26    11    26 1   
@<TRIPOS>SUBSTRUCTURE
     1 MOL         1 TEMP              0 ****  ****    0 ROOT
