@<TRIPOS>MOLECULE
MOL
   26    26     1     0     0
SMALL
No Charge or Current Charge


@<TRIPOS>ATOM
      1 C1          -1.1110     1.8830     0.0360 C.ar       1 MOL       0.000000
      2 C2           0.0510     1.2260    -0.3520 C.ar       1 MOL       0.000000
      3 C3          -2.3130     1.1880     0.2140 C.ar       1 MOL       0.000000
      4 C4          -1.1680    -0.8600    -0.3930 C.ar       1 MOL       0.000000
      5 C5           0.0240    -0.1630    -0.5680 C.ar       1 MOL       0.000000
      6 C6          -2.3400    -0.1930    -0.0030 C.ar       1 MOL       0.000000
      7 C7           3.3460    -0.0790     0.1410 C.2        1 MOL       0.000000
      8 C8           4.2410    -0.2160     1.3650 C.3        1 MOL       0.000000
      9 C9          -4.6650    -0.3660     0.5180 C.3        1 MOL       0.000000
     10 C10          1.2900    -0.8940    -0.9770 C.3        1 MOL       0.000000
     11 N1           2.2950    -0.9540     0.0820 N.am       1 MOL       0.000000
     12 O1           3.5690     0.7550    -0.7300 O.2        1 MOL       0.000000
     13 O2          -3.4470    -0.9830     0.1360 O.3        1 MOL       0.000000
     14 H1          -1.0950     2.9580     0.1990 H          1 MOL       0.000000
     15 H2           0.9790     1.7720    -0.4950 H          1 MOL       0.000000
     16 H3          -3.2050     1.7260     0.5140 H          1 MOL       0.000000
     17 H4          -1.2210    -1.9330    -0.5590 H          1 MOL       0.000000
     18 H5           5.2770    -0.3190     1.0310 H          1 MOL       0.000000
     19 H6           4.1780     0.7050     1.9540 H          1 MOL       0.000000
     20 H7           3.9860    -1.0650     2.0070 H          1 MOL       0.000000
     21 H8          -5.4050    -1.1670     0.5640 H          1 MOL       0.000000
     22 H9          -4.9880     0.3830    -0.2170 H          1 MOL       0.000000
     23 H10         -4.5860     0.1100     1.5040 H          1 MOL       0.000000
     24 H11          1.0510    -1.9160    -1.2910 H          1 MOL       0.000000
     25 H12          1.7730    -0.3850    -1.8140 H          1 MOL       0.000000
     26 H13          2.0870    -1.5140     0.8960 H          1 MOL       0.000000
@<TRIPOS>BOND
     1     1     2 ar  
     2     1     3 ar  
     3     1    14 1   
     4     2     5 ar  
     5     2    15 1   
     6     3     6 ar  
     7     3    16 1   
     8     4     5 ar  
     9     4     6 ar  
    10     4    17 1   
    11     5    10 1   
    12     6    13 1   
    13     7     8 1   
    14     7    11 am  
    15     7    12 2   
    16     8    18 1   
    17     8    19 1   
    18     8    20 1   
    19     9    13 1   
    20     9    21 1   
    21     9    22 1   
    22     9    23 1   
    23    10    11 1   
    24    10    24 1   
    25    10    25 1   
    26    11    26 1   
@<TRIPOS>SUBSTRUCTURE
     1 MOL         1 TEMP              0 ****  ****    0 ROOT
