@<TRIPOS>MOLECULE
*****
 29 29 0 0 0
SMALL
GASTEIGER

@<TRIPOS>ATOM
      1 C           4.6151    1.6468    2.7354 C.3     1  UNL1        0.0001
      2 N           4.3452    1.4090    1.3406 N.am    1  UNL1        0.3168
      3 C           5.3797    1.0625    0.4797 C.2     1  UNL1        0.2333
      4 O           6.5256    0.8361    0.8635 O.2     1  UNL1        0.2738
      5 C           4.9215    0.9094   -0.9997 C.3     1  UNL1        0.1021
      6 H           3.8275    1.0074   -1.0290 H       1  UNL1        0.0597
      7 C           5.2980   -0.5443   -1.3713 C.3     1  UNL1        0.0257
      8 C           4.8482   -0.9275   -2.7751 C.3     1  UNL1        0.0495
      9 C           5.3630    0.0801   -3.7924 C.3     1  UNL1        0.0371
     10 C           4.9670    1.4945   -3.3966 C.3     1  UNL1        0.0154
     11 N           5.4441    1.8240   -2.0483 N.am    1  UNL1        0.2901
     12 C           5.8910    3.0910   -1.6929 C.2     1  UNL1        0.2131
     13 C           6.4462    4.0152   -2.7572 C.3     1  UNL1        0.0124
     14 O           5.9125    3.4816   -0.5244 O.2     1  UNL1        0.2759
     15 H           3.6726    1.8757    3.2395 H       1  UNL1        0.0426
     16 H           5.3046    2.4891    2.8329 H       1  UNL1        0.0426
     17 H           5.0634    0.7527    3.1769 H       1  UNL1        0.0426
     18 H           3.5458    1.8795    0.9377 H       1  UNL1        0.1484
     19 H           4.8725   -1.2472   -0.6450 H       1  UNL1        0.0288
     20 H           6.3897   -0.6602   -1.3149 H       1  UNL1        0.0288
     21 H           3.7535   -0.9690   -2.8124 H       1  UNL1        0.0266
     22 H           5.2208   -1.9271   -3.0241 H       1  UNL1        0.0266
     23 H           4.9678   -0.1570   -4.7860 H       1  UNL1        0.0280
     24 H           6.4566    0.0170   -3.8517 H       1  UNL1        0.0280
     25 H           3.8728    1.5954   -3.3863 H       1  UNL1        0.0465
     26 H           5.3270    2.1772   -4.1616 H       1  UNL1        0.0465
     27 H           6.1081    3.8261   -3.7710 H       1  UNL1        0.0323
     28 H           7.5390    3.9658   -2.7413 H       1  UNL1        0.0323
     29 H           6.1333    5.0364   -2.5171 H       1  UNL1        0.0323
@<TRIPOS>BOND
     1     1     2    1
     2     2     3   am
     3     3     4    2
     4     5     7    1
     5     7     8    1
     6     8     9    1
     7     9    10    1
     8    10    11    1
     9     5    11    1
    10    11    12   am
    11    12    13    1
    12    12    14    2
    13     5     6    1
    14     5     3    1
    15     1    15    1
    16     1    16    1
    17     1    17    1
    18     2    18    1
    19     7    19    1
    20     7    20    1
    21     8    21    1
    22     8    22    1
    23     9    23    1
    24     9    24    1
    25    10    25    1
    26    10    26    1
    27    13    27    1
    28    13    28    1
    29    13    29    1
