@<TRIPOS>MOLECULE
MOL
   25    25     1     0     0
SMALL
No Charge or Current Charge


@<TRIPOS>ATOM
      1 C1           4.5480    -0.5610    -0.1520 C.3        1 MOL       0.000000
      2 N1           3.3190    -0.0800     0.5000 N.3        1 MOL       0.000000
      3 C2           3.5010     1.1530     1.2800 C.3        1 MOL       0.000000
      4 S1           1.9550    -0.0700    -0.4970 S.o2       1 MOL       0.000000
      5 O1           1.6760     1.2460    -1.0720 O.2        1 MOL       0.000000
      6 O2           2.0600    -1.2410    -1.3680 O.2        1 MOL       0.000000
      7 N2           0.8120    -0.3100     0.7540 N.3        1 MOL       0.000000
      8 C3          -0.5850    -0.1990     0.4670 C.ar       1 MOL       0.000000
      9 C4          -1.4210    -1.3010     0.6800 C.ar       1 MOL       0.000000
     10 C5          -2.7980    -1.1940     0.4900 C.ar       1 MOL       0.000000
     11 C6          -3.3320     0.0190     0.0590 C.ar       1 MOL       0.000000
     12 Cl1         -5.0660     0.1610    -0.1960 Cl         1 MOL       0.000000
     13 C7          -2.5090     1.1210    -0.1710 C.ar       1 MOL       0.000000
     14 C8          -1.1370     1.0170     0.0460 C.ar       1 MOL       0.000000
     15 H1           5.2770    -0.7680     0.6380 H          1 MOL       0.000000
     16 H2           4.9770     0.1800    -0.8430 H          1 MOL       0.000000
     17 H3           4.3380    -1.4820    -0.6940 H          1 MOL       0.000000
     18 H4           4.2500     0.9500     2.0520 H          1 MOL       0.000000
     19 H5           2.5620     1.4190     1.7670 H          1 MOL       0.000000
     20 H6           3.8400     1.9940     0.6600 H          1 MOL       0.000000
     21 H7           1.0500    -1.1850     1.2150 H          1 MOL       0.000000
     22 H8          -0.9980    -2.2520     0.9950 H          1 MOL       0.000000
     23 H9          -3.4450    -2.0470     0.6620 H          1 MOL       0.000000
     24 H10         -2.9380     2.0600    -0.5030 H          1 MOL       0.000000
     25 H11         -0.4920     1.8710    -0.1180 H          1 MOL       0.000000
@<TRIPOS>BOND
     1     1     2 1   
     2     1    15 1   
     3     1    16 1   
     4     1    17 1   
     5     2     3 1   
     6     2     4 1   
     7     3    18 1   
     8     3    19 1   
     9     3    20 1   
    10     4     5 2   
    11     4     6 2   
    12     4     7 1   
    13     7     8 1   
    14     7    21 1   
    15     8     9 ar  
    16     8    14 ar  
    17     9    10 ar  
    18     9    22 1   
    19    10    11 ar  
    20    10    23 1   
    21    11    12 1   
    22    11    13 ar  
    23    13    14 ar  
    24    13    24 1   
    25    14    25 1   
@<TRIPOS>SUBSTRUCTURE
     1 MOL         1 TEMP              0 ****  ****    0 ROOT
