@<TRIPOS>MOLECULE
MOL
   25    25     1     0     0
SMALL
No Charge or Current Charge


@<TRIPOS>ATOM
 1  C1  4.548000  -0.561000  -0.152000  C.3  1  MOL  -0.237140 
 2  N1  3.319000  -0.080000  0.500000  N.3  1  MOL  -0.308659 
 3  C2  3.501000  1.153000  1.280000  C.3  1  MOL  -0.237140 
 4  S1  1.955000  -0.070000  -0.497000  S.o2  1  MOL  1.084913 
 5  O1  1.676000  1.246000  -1.072000  O.2  1  MOL  -0.509246 
 6  O2  2.060000  -1.241000  -1.368000  O.2  1  MOL  -0.509246 
 7  N2  0.812000  -0.310000  0.754000  N.3  1  MOL  -0.677968 
 8  C3  -0.585000  -0.199000  0.467000  C.ar  1  MOL  0.334343 
 9  C4  -1.421000  -1.301000  0.680000  C.ar  1  MOL  -0.238134 
 10  C5  -2.798000  -1.194000  0.490000  C.ar  1  MOL  -0.088339 
 11  C6  -3.332000  0.019000  0.059000  C.ar  1  MOL  -0.003092 
 12  Cl1  -5.066000  0.161000  -0.196000  Cl  1  MOL  -0.118520 
 13  C7  -2.509000  1.121000  -0.171000  C.ar  1  MOL  -0.088339 
 14  C8  -1.137000  1.017000  0.046000  C.ar  1  MOL  -0.238134 
 15  H1  5.277000  -0.768000  0.638000  H  1  MOL  0.133004 
 16  H2  4.977000  0.180000  -0.843000  H  1  MOL  0.133004 
 17  H3  4.338000  -1.482000  -0.694000  H  1  MOL  0.133004 
 18  H4  4.250000  0.950000  2.052000  H  1  MOL  0.133004 
 19  H5  2.562000  1.419000  1.767000  H  1  MOL  0.133004 
 20  H6  3.840000  1.994000  0.660000  H  1  MOL  0.133004 
 21  H7  1.050000  -1.185000  1.215000  H  1  MOL  0.351857 
 22  H8  -0.998000  -2.252000  0.995000  H  1  MOL  0.193174 
 23  H9  -3.445000  -2.047000  0.662000  H  1  MOL  0.149237 
 24  H10  -2.938000  2.060000  -0.503000  H  1  MOL  0.149237 
 25  H11  -0.492000  1.871000  -0.118000  H  1  MOL  0.193174 
@<TRIPOS>BOND
     1     1     2 1   
     2     1    15 1   
     3     1    16 1   
     4     1    17 1   
     5     2     3 1   
     6     2     4 1   
     7     3    18 1   
     8     3    19 1   
     9     3    20 1   
    10     4     5 2   
    11     4     6 2   
    12     4     7 1   
    13     7     8 1   
    14     7    21 1   
    15     8     9 ar  
    16     8    14 ar  
    17     9    10 ar  
    18     9    22 1   
    19    10    11 ar  
    20    10    23 1   
    21    11    12 1   
    22    11    13 ar  
    23    13    14 ar  
    24    13    24 1   
    25    14    25 1   
@<TRIPOS>SUBSTRUCTURE
     1 MOL         1 TEMP              0 ****  ****    0 ROOT
