@<TRIPOS>MOLECULE
MOL
   37    37     1     0     0
SMALL
No Charge or Current Charge


@<TRIPOS>ATOM
      1 C1          -1.9950    -0.0390    -0.1460 C.2        1 MOL       0.000000
      2 C2           3.4060    -0.9850     0.1620 C.3        1 MOL       0.000000
      3 C3           3.3800     0.4030     0.8200 C.3        1 MOL       0.000000
      4 C4           2.7320    -0.9670    -1.2180 C.3        1 MOL       0.000000
      5 C5           1.9510     0.9660     0.8980 C.3        1 MOL       0.000000
      6 C6           1.2980    -0.4150    -1.1410 C.3        1 MOL       0.000000
      7 C7           1.2820     0.9820    -0.4910 C.3        1 MOL       0.000000
      8 C8          -2.5490    -2.3910    -0.2530 C.3        1 MOL       0.000000
      9 C9          -1.0240    -1.6310     1.5320 C.3        1 MOL       0.000000
     10 C10         -0.0890     1.6970    -0.5100 C.3        1 MOL       0.000000
     11 C11         -1.2280     1.1970     0.4110 C.3        1 MOL       0.000000
     12 N1          -1.8300    -1.2680     0.3670 N.am       1 MOL       0.000000
     13 N2          -2.3230     2.2610     0.3350 N.4        1 MOL       0.000000
     14 O1          -2.7730     0.2270    -1.0770 O.2        1 MOL       0.000000
     15 H1           4.4400    -1.3380     0.0720 H          1 MOL       0.000000
     16 H2           2.8890    -1.7060     0.8130 H          1 MOL       0.000000
     17 H3           3.8170     0.3610     1.8250 H          1 MOL       0.000000
     18 H4           4.0040     1.0950     0.2380 H          1 MOL       0.000000
     19 H5           3.3210    -0.3420    -1.9040 H          1 MOL       0.000000
     20 H6           2.7190    -1.9740    -1.6510 H          1 MOL       0.000000
     21 H7           1.3670     0.3440     1.5940 H          1 MOL       0.000000
     22 H8           1.9670     1.9800     1.3220 H          1 MOL       0.000000
     23 H9           0.8560    -0.3650    -2.1450 H          1 MOL       0.000000
     24 H10          0.6810    -1.1130    -0.5610 H          1 MOL       0.000000
     25 H11          1.9070     1.6240    -1.1300 H          1 MOL       0.000000
     26 H12         -1.8280    -3.1470    -0.5800 H          1 MOL       0.000000
     27 H13         -3.1170    -2.0270    -1.1060 H          1 MOL       0.000000
     28 H14         -3.2270    -2.8410     0.4800 H          1 MOL       0.000000
     29 H15         -0.5130    -0.7720     1.9600 H          1 MOL       0.000000
     30 H16         -0.2690    -2.3710     1.2470 H          1 MOL       0.000000
     31 H17         -1.6720    -2.0740     2.2970 H          1 MOL       0.000000
     32 H18          0.1000     2.7430    -0.2260 H          1 MOL       0.000000
     33 H19         -0.4800     1.7050    -1.5360 H          1 MOL       0.000000
     34 H20         -0.9190     1.1300     1.4530 H          1 MOL       0.000000
     35 H21         -1.9490     3.2110     0.2460 H          1 MOL       0.000000
     36 H22         -2.9690     2.2340     1.1320 H          1 MOL       0.000000
     37 H23         -2.8540     1.9770    -0.5260 H          1 MOL       0.000000
@<TRIPOS>BOND
     1     1    11 1   
     2     1    12 am  
     3     1    14 2   
     4     2     3 1   
     5     2     4 1   
     6     2    15 1   
     7     2    16 1   
     8     3     5 1   
     9     3    17 1   
    10     3    18 1   
    11     4     6 1   
    12     4    19 1   
    13     4    20 1   
    14     5     7 1   
    15     5    21 1   
    16     5    22 1   
    17     6     7 1   
    18     6    23 1   
    19     6    24 1   
    20     7    10 1   
    21     7    25 1   
    22     8    12 1   
    23     8    26 1   
    24     8    27 1   
    25     8    28 1   
    26     9    12 1   
    27     9    29 1   
    28     9    30 1   
    29     9    31 1   
    30    10    11 1   
    31    10    32 1   
    32    10    33 1   
    33    11    13 1   
    34    11    34 1   
    35    13    35 1   
    36    13    36 1   
    37    13    37 1   
@<TRIPOS>SUBSTRUCTURE
     1 MOL         1 TEMP              0 ****  ****    0 ROOT
