@<TRIPOS>MOLECULE
MOL
   37    37     1     0     0
SMALL
No Charge or Current Charge


@<TRIPOS>ATOM
 1  C1  -1.995000  -0.039000  -0.146000  C.2  1  MOL  0.983980 
 2  C2  3.406000  -0.985000  0.162000  C.3  1  MOL  -0.072458 
 3  C3  3.380000  0.403000  0.820000  C.3  1  MOL  -0.092362 
 4  C4  2.732000  -0.967000  -1.218000  C.3  1  MOL  -0.092362 
 5  C5  1.951000  0.966000  0.898000  C.3  1  MOL  -0.080266 
 6  C6  1.298000  -0.415000  -1.141000  C.3  1  MOL  -0.080266 
 7  C7  1.282000  0.982000  -0.491000  C.3  1  MOL  0.011373 
 8  C8  -2.549000  -2.391000  -0.253000  C.3  1  MOL  -0.028720 
 9  C9  -1.024000  -1.631000  1.532000  C.3  1  MOL  -0.028720 
 10  C10  -0.089000  1.697000  -0.510000  C.3  1  MOL  -0.055176 
 11  C11  -1.228000  1.197000  0.411000  C.3  1  MOL  -0.400385 
 12  N1  -1.830000  -1.268000  0.367000  N.am  1  MOL  -0.237110 
 13  N2  -2.323000  2.261000  0.335000  N.4  1  MOL  -0.830654 
 14  O1  -2.773000  0.227000  -1.077000  O.2  1  MOL  -0.625131 
 15  H1  4.440000  -1.338000  0.072000  H  1  MOL  0.058389 
 16  H2  2.889000  -1.706000  0.813000  H  1  MOL  0.058389 
 17  H3  3.817000  0.361000  1.825000  H  1  MOL  0.055266 
 18  H4  4.004000  1.095000  0.238000  H  1  MOL  0.055266 
 19  H5  3.321000  -0.342000  -1.904000  H  1  MOL  0.055266 
 20  H6  2.719000  -1.974000  -1.651000  H  1  MOL  0.055266 
 21  H7  1.367000  0.344000  1.594000  H  1  MOL  0.041747 
 22  H8  1.967000  1.980000  1.322000  H  1  MOL  0.041747 
 23  H9  0.856000  -0.365000  -2.145000  H  1  MOL  0.041747 
 24  H10  0.681000  -1.113000  -0.561000  H  1  MOL  0.041747 
 25  H11  1.907000  1.624000  -1.130000  H  1  MOL  0.053623 
 26  H12  -1.828000  -3.147000  -0.580000  H  1  MOL  0.049090 
 27  H13  -3.117000  -2.027000  -1.106000  H  1  MOL  0.049090 
 28  H14  -3.227000  -2.841000  0.480000  H  1  MOL  0.049090 
 29  H15  -0.513000  -0.772000  1.960000  H  1  MOL  0.049090 
 30  H16  -0.269000  -2.371000  1.247000  H  1  MOL  0.049090 
 31  H17  -1.672000  -2.074000  2.297000  H  1  MOL  0.049090 
 32  H18  0.100000  2.743000  -0.226000  H  1  MOL  0.089917 
 33  H19  -0.480000  1.705000  -1.536000  H  1  MOL  0.089917 
 34  H20  -0.919000  1.130000  1.453000  H  1  MOL  0.259417 
 35  H21  -1.949000  3.211000  0.246000  H  1  MOL  0.445338 
 36  H22  -2.969000  2.234000  1.132000  H  1  MOL  0.445338 
 37  H23  -2.854000  1.977000  -0.526000  H  1  MOL  0.445338 
@<TRIPOS>BOND
     1     1    11 1   
     2     1    12 am  
     3     1    14 2   
     4     2     3 1   
     5     2     4 1   
     6     2    15 1   
     7     2    16 1   
     8     3     5 1   
     9     3    17 1   
    10     3    18 1   
    11     4     6 1   
    12     4    19 1   
    13     4    20 1   
    14     5     7 1   
    15     5    21 1   
    16     5    22 1   
    17     6     7 1   
    18     6    23 1   
    19     6    24 1   
    20     7    10 1   
    21     7    25 1   
    22     8    12 1   
    23     8    26 1   
    24     8    27 1   
    25     8    28 1   
    26     9    12 1   
    27     9    29 1   
    28     9    30 1   
    29     9    31 1   
    30    10    11 1   
    31    10    32 1   
    32    10    33 1   
    33    11    13 1   
    34    11    34 1   
    35    13    35 1   
    36    13    36 1   
    37    13    37 1   
@<TRIPOS>SUBSTRUCTURE
     1 MOL         1 TEMP              0 ****  ****    0 ROOT
