@<TRIPOS>MOLECULE
*****
 28 28 0 0 0
SMALL
GASTEIGER

@<TRIPOS>ATOM
      1 C           3.9237   -2.2506    2.1369 C.3     1  UNL1        0.0122
      2 C           4.6707   -1.1988    1.3660 C.2     1  UNL1        0.2102
      3 O           5.7305   -1.4007    0.7680 O.2     1  UNL1        0.2761
      4 N           4.1565    0.0669    1.4875 N.am    1  UNL1        0.3114
      5 C           4.6027    1.1391    0.6332 C.3     1  UNL1        0.0373
      6 C           5.1451    2.3113    1.4131 C.ar    1  UNL1        0.0208
      7 C           4.5191    3.5553    1.1818 C.ar    1  UNL1        0.0383
      8 C           4.9662    4.7160    1.8041 C.ar    1  UNL1        0.0413
      9 CL          4.2202    6.2196    1.4412 Cl      1  UNL1        0.0835
     10 C           6.0231    4.6592    2.6988 C.ar    1  UNL1        0.0429
     11 C           6.6511    3.4372    2.9528 C.ar    1  UNL1        0.0519
     12 C           6.2502    2.2497    2.2998 C.ar    1  UNL1        0.0017
     13 C           7.0281    0.9914    2.6149 C.3     1  UNL1        0.0091
     14 N           7.7021    0.3808    1.4517 N.4     1  UNL1        0.2219
     15 H           7.0261   -0.1532    0.8728 H       1  UNL1        0.1997
     16 H           8.1735    1.0774    0.8655 H       1  UNL1        0.1997
     17 H           8.3948   -0.3156    1.7475 H       1  UNL1        0.1997
     18 H           4.3253   -3.2389    1.8984 H       1  UNL1        0.0322
     19 H           2.8605   -2.2344    1.8786 H       1  UNL1        0.0322
     20 H           4.0433   -2.0616    3.2072 H       1  UNL1        0.0322
     21 H           3.2848    0.1996    1.9933 H       1  UNL1        0.1490
     22 H           3.7296    1.4283    0.0370 H       1  UNL1        0.0512
     23 H           5.3576    0.8035   -0.0849 H       1  UNL1        0.0512
     24 H           3.6752    3.6266    0.4950 H       1  UNL1        0.0635
     25 H           6.3663    5.5632    3.1979 H       1  UNL1        0.0632
     26 H           7.4687    3.4356    3.6747 H       1  UNL1        0.0623
     27 H           6.4017    0.2287    3.0847 H       1  UNL1        0.0866
     28 H           7.8367    1.2156    3.3208 H       1  UNL1        0.0866
@<TRIPOS>BOND
     1     1     2    1
     2     2     3    2
     3     2     4   am
     4     4     5    1
     5     5     6    1
     6     6     7   ar
     7     7     8   ar
     8     8     9    1
     9     8    10   ar
    10    10    11   ar
    11    11    12   ar
    12     6    12   ar
    13    12    13    1
    14    13    14    1
    15    14    15    1
    16    14    16    1
    17    14    17    1
    18     1    18    1
    19     1    19    1
    20     1    20    1
    21     4    21    1
    22     5    22    1
    23     5    23    1
    24     7    24    1
    25    10    25    1
    26    11    26    1
    27    13    27    1
    28    13    28    1
