@<TRIPOS>MOLECULE
*****
 23 23 0 0 0
SMALL
GASTEIGER

@<TRIPOS>ATOM
      1 C           1.1232   -0.0110    0.0366 C.3     1  UNL1        0.0004
      2 N           2.5626    0.0564    0.0271 N.am    1  UNL1        0.3144
      3 C           3.2278    0.7756   -0.9469 C.2     1  UNL1        0.2438
      4 O           2.6496    1.4170   -1.8179 O.2     1  UNL1        0.2702
      5 C           4.7179    0.6990   -0.9311 C.ar    1  UNL1        0.0369
      6 C           5.4159    0.9512   -2.1176 C.ar    1  UNL1        0.0462
      7 C           6.8075    0.8171   -2.1567 C.ar    1  UNL1        0.0192
      8 C           7.5191    0.4507   -1.0118 C.ar    1  UNL1        0.1201
      9 C           6.8306    0.2648    0.1874 C.ar    1  UNL1        0.0192
     10 C           5.4362    0.3845    0.2287 C.ar    1  UNL1        0.0462
     11 O           8.8677    0.3065   -1.1882 O.3     1  UNL1        0.4951
     12 C           9.6100   -0.1717   -0.0720 C.3     1  UNL1        0.0788
     13 H           0.8082   -0.6441    0.8695 H       1  UNL1        0.0426
     14 H           0.7723   -0.4361   -0.9078 H       1  UNL1        0.0426
     15 H           0.7152    0.9959    0.1575 H       1  UNL1        0.0426
     16 H           3.0694   -0.6062    0.5958 H       1  UNL1        0.1487
     17 H           4.8787    1.2374   -3.0199 H       1  UNL1        0.0626
     18 H           7.3379    0.9899   -3.0906 H       1  UNL1        0.0654
     19 H           7.3482    0.0255    1.1105 H       1  UNL1        0.0654
     20 H           4.9346    0.2450    1.1812 H       1  UNL1        0.0626
     21 H          10.6374   -0.3532   -0.4016 H       1  UNL1        0.0660
     22 H           9.2119   -1.1221    0.3007 H       1  UNL1        0.0660
     23 H           9.6389    0.5817    0.7217 H       1  UNL1        0.0660
@<TRIPOS>BOND
     1     1     2    1
     2     2     3   am
     3     3     4    2
     4     3     5    1
     5     5     6   ar
     6     6     7   ar
     7     7     8   ar
     8     8     9   ar
     9     9    10   ar
    10     5    10   ar
    11     8    11    1
    12    11    12    1
    13     1    13    1
    14     1    14    1
    15     1    15    1
    16     2    16    1
    17     6    17    1
    18     7    18    1
    19     9    19    1
    20    10    20    1
    21    12    21    1
    22    12    22    1
    23    12    23    1
