@<TRIPOS>MOLECULE
MOL
   29    29     1     0     0
SMALL
No Charge or Current Charge


@<TRIPOS>ATOM
 1  C1  1.437000  0.457000  -0.116000  C.2  1  MOL  0.596329 
 2  C2  -0.975000  -1.753000  -0.210000  C.2  1  MOL  0.562201 
 3  C3  -0.950000  2.591000  -0.128000  C.3  1  MOL  -0.063070 
 4  C4  -1.347000  1.736000  1.090000  C.3  1  MOL  -0.001740 
 5  C5  -0.456000  1.714000  -1.301000  C.3  1  MOL  -0.004342 
 6  C6  -1.925000  0.383000  0.670000  C.3  1  MOL  0.004797 
 7  C7  0.089000  0.345000  -0.876000  C.3  1  MOL  -0.252712 
 8  C8  -2.132000  -2.487000  0.450000  C.3  1  MOL  -0.157534 
 9  C9  3.363000  -0.855000  0.684000  C.3  1  MOL  -0.006198 
 10  N1  -0.930000  -0.393000  -0.090000  N.am  1  MOL  -0.199344 
 11  N2  2.106000  -0.721000  -0.028000  N.am  1  MOL  -0.470020 
 12  O1  1.850000  1.524000  0.336000  O.2  1  MOL  -0.524049 
 13  O2  -0.107000  -2.383000  -0.828000  O.2  1  MOL  -0.565919 
 14  H1  -1.811000  3.182000  -0.465000  H  1  MOL  0.037523 
 15  H2  -0.167000  3.291000  0.170000  H  1  MOL  0.037523 
 16  H3  -0.465000  1.561000  1.715000  H  1  MOL  0.021909 
 17  H4  -2.086000  2.256000  1.710000  H  1  MOL  0.021909 
 18  H5  -1.281000  1.525000  -1.999000  H  1  MOL  0.039910 
 19  H6  0.324000  2.233000  -1.866000  H  1  MOL  0.039910 
 20  H7  -2.214000  -0.188000  1.556000  H  1  MOL  0.057798 
 21  H8  -2.835000  0.532000  0.067000  H  1  MOL  0.057798 
 22  H9  0.271000  -0.264000  -1.766000  H  1  MOL  0.129850 
 23  H10  -3.104000  -2.056000  0.190000  H  1  MOL  0.062556 
 24  H11  -2.040000  -2.465000  1.543000  H  1  MOL  0.040540 
 25  H12  -2.093000  -3.525000  0.120000  H  1  MOL  0.058157 
 26  H13  3.698000  0.144000  0.963000  H  1  MOL  0.068972 
 27  H14  4.121000  -1.326000  0.047000  H  1  MOL  0.058547 
 28  H15  3.248000  -1.460000  1.592000  H  1  MOL  0.062004 
 29  H16  1.630000  -1.546000  -0.389000  H  1  MOL  0.286695 
@<TRIPOS>BOND
     1     1     7 1   
     2     1    11 am  
     3     1    12 2   
     4     2     8 1   
     5     2    10 am  
     6     2    13 2   
     7     3     4 1   
     8     3     5 1   
     9     3    14 1   
    10     3    15 1   
    11     4     6 1   
    12     4    16 1   
    13     4    17 1   
    14     5     7 1   
    15     5    18 1   
    16     5    19 1   
    17     6    10 1   
    18     6    20 1   
    19     6    21 1   
    20     7    10 1   
    21     7    22 1   
    22     8    23 1   
    23     8    24 1   
    24     8    25 1   
    25     9    11 1   
    26     9    26 1   
    27     9    27 1   
    28     9    28 1   
    29    11    29 1   
@<TRIPOS>SUBSTRUCTURE
     1 MOL         1 TEMP              0 ****  ****    0 ROOT
