@<TRIPOS>MOLECULE
MOL
   29    29     1     0     0
SMALL
No Charge or Current Charge


@<TRIPOS>ATOM
      1 C1           1.4370     0.4570    -0.1160 C.2        1 MOL       0.000000
      2 C2          -0.9750    -1.7530    -0.2100 C.2        1 MOL       0.000000
      3 C3          -0.9500     2.5910    -0.1280 C.3        1 MOL       0.000000
      4 C4          -1.3470     1.7360     1.0900 C.3        1 MOL       0.000000
      5 C5          -0.4560     1.7140    -1.3010 C.3        1 MOL       0.000000
      6 C6          -1.9250     0.3830     0.6700 C.3        1 MOL       0.000000
      7 C7           0.0890     0.3450    -0.8760 C.3        1 MOL       0.000000
      8 C8          -2.1320    -2.4870     0.4500 C.3        1 MOL       0.000000
      9 C9           3.3630    -0.8550     0.6840 C.3        1 MOL       0.000000
     10 N1          -0.9300    -0.3930    -0.0900 N.am       1 MOL       0.000000
     11 N2           2.1060    -0.7210    -0.0280 N.am       1 MOL       0.000000
     12 O1           1.8500     1.5240     0.3360 O.2        1 MOL       0.000000
     13 O2          -0.1070    -2.3830    -0.8280 O.2        1 MOL       0.000000
     14 H1          -1.8110     3.1820    -0.4650 H          1 MOL       0.000000
     15 H2          -0.1670     3.2910     0.1700 H          1 MOL       0.000000
     16 H3          -0.4650     1.5610     1.7150 H          1 MOL       0.000000
     17 H4          -2.0860     2.2560     1.7100 H          1 MOL       0.000000
     18 H5          -1.2810     1.5250    -1.9990 H          1 MOL       0.000000
     19 H6           0.3240     2.2330    -1.8660 H          1 MOL       0.000000
     20 H7          -2.2140    -0.1880     1.5560 H          1 MOL       0.000000
     21 H8          -2.8350     0.5320     0.0670 H          1 MOL       0.000000
     22 H9           0.2710    -0.2640    -1.7660 H          1 MOL       0.000000
     23 H10         -3.1040    -2.0560     0.1900 H          1 MOL       0.000000
     24 H11         -2.0400    -2.4650     1.5430 H          1 MOL       0.000000
     25 H12         -2.0930    -3.5250     0.1200 H          1 MOL       0.000000
     26 H13          3.6980     0.1440     0.9630 H          1 MOL       0.000000
     27 H14          4.1210    -1.3260     0.0470 H          1 MOL       0.000000
     28 H15          3.2480    -1.4600     1.5920 H          1 MOL       0.000000
     29 H16          1.6300    -1.5460    -0.3890 H          1 MOL       0.000000
@<TRIPOS>BOND
     1     1     7 1   
     2     1    11 am  
     3     1    12 2   
     4     2     8 1   
     5     2    10 am  
     6     2    13 2   
     7     3     4 1   
     8     3     5 1   
     9     3    14 1   
    10     3    15 1   
    11     4     6 1   
    12     4    16 1   
    13     4    17 1   
    14     5     7 1   
    15     5    18 1   
    16     5    19 1   
    17     6    10 1   
    18     6    20 1   
    19     6    21 1   
    20     7    10 1   
    21     7    22 1   
    22     8    23 1   
    23     8    24 1   
    24     8    25 1   
    25     9    11 1   
    26     9    26 1   
    27     9    27 1   
    28     9    28 1   
    29    11    29 1   
@<TRIPOS>SUBSTRUCTURE
     1 MOL         1 TEMP              0 ****  ****    0 ROOT
