@<TRIPOS>MOLECULE
MOL
   40    39     1     0     0
SMALL
No Charge or Current Charge


@<TRIPOS>ATOM
      1 C1          -2.4960    -0.9580    -0.3010 C.2        1 MOL       0.000000
      2 C2           3.5660    -0.6660     0.6370 C.cat      1 MOL       0.000000
      3 C3          -4.6740    -1.2050     0.7460 C.3        1 MOL       0.000000
      4 C4          -3.0020     0.1910     1.8830 C.3        1 MOL       0.000000
      5 C5          -0.5140     3.5970     0.0920 C.3        1 MOL       0.000000
      6 C6           0.4780    -2.4300    -0.5840 C.3        1 MOL       0.000000
      7 C7          -0.1490    -1.1820    -1.2560 C.3        1 MOL       0.000000
      8 C8           1.9930    -2.3220    -0.3640 C.3        1 MOL       0.000000
      9 C9          -1.0500    -0.3730    -0.2980 C.3        1 MOL       0.000000
     10 N1           3.7390     0.5970     1.0500 N.3        1 MOL       0.000000
     11 N2           2.3300    -1.1080     0.3980 N.3        1 MOL       0.000000
     12 N3          -1.1730     1.0670    -0.6390 N.3        1 MOL       0.000000
     13 N4          -3.3060    -0.6850     0.7600 N.am       1 MOL       0.000000
     14 N5           4.6280    -1.4700     0.4680 N.3        1 MOL       0.000000
     15 O1          -2.8510    -1.6410    -1.2580 O.2        1 MOL       0.000000
     16 O2           0.9470     2.2330    -1.6660 O.2        1 MOL       0.000000
     17 O3           0.9120     1.4430     0.7470 O.2        1 MOL       0.000000
     18 S1           0.1990     2.0330    -0.4230 S.o2       1 MOL       0.000000
     19 H1          -4.8730    -1.7440     1.6780 H          1 MOL       0.000000
     20 H2          -4.7870    -1.8780    -0.1020 H          1 MOL       0.000000
     21 H3          -5.3940    -0.3820     0.6570 H          1 MOL       0.000000
     22 H4          -3.6460     1.0800     1.8570 H          1 MOL       0.000000
     23 H5          -1.9660     0.5230     1.8750 H          1 MOL       0.000000
     24 H6          -3.1910    -0.3370     2.8260 H          1 MOL       0.000000
     25 H7           0.3160     4.2910     0.2470 H          1 MOL       0.000000
     26 H8          -1.1610     3.9620    -0.7080 H          1 MOL       0.000000
     27 H9          -1.0770     3.4430     1.0130 H          1 MOL       0.000000
     28 H10         -0.0100    -2.6380     0.3770 H          1 MOL       0.000000
     29 H11          0.3100    -3.3180    -1.1990 H          1 MOL       0.000000
     30 H12          0.6380    -0.5300    -1.6520 H          1 MOL       0.000000
     31 H13         -0.7670    -1.4860    -2.1030 H          1 MOL       0.000000
     32 H14          2.3430    -3.2060     0.1830 H          1 MOL       0.000000
     33 H15          2.5100    -2.2900    -1.3320 H          1 MOL       0.000000
     34 H16         -0.6490    -0.4060     0.7160 H          1 MOL       0.000000
     35 H17          2.9400     1.2280     1.0600 H          1 MOL       0.000000
     36 H18          4.6190     0.9160     1.4260 H          1 MOL       0.000000
     37 H19          1.6010    -0.4120     0.5470 H          1 MOL       0.000000
     38 H20         -1.5380     1.2090    -1.5830 H          1 MOL       0.000000
     39 H21          5.5710    -1.1160     0.5320 H          1 MOL       0.000000
     40 H22          4.5130    -2.4500     0.2580 H          1 MOL       0.000000
@<TRIPOS>BOND
     1     1     9 1   
     2     1    13 am  
     3     1    15 2   
     4     2    10 2   
     5     2    11 1   
     6     2    14 1   
     7     3    13 1   
     8     3    19 1   
     9     3    20 1   
    10     3    21 1   
    11     4    13 1   
    12     4    22 1   
    13     4    23 1   
    14     4    24 1   
    15     5    18 1   
    16     5    25 1   
    17     5    26 1   
    18     5    27 1   
    19     6     7 1   
    20     6     8 1   
    21     6    28 1   
    22     6    29 1   
    23     7     9 1   
    24     7    30 1   
    25     7    31 1   
    26     8    11 1   
    27     8    32 1   
    28     8    33 1   
    29     9    12 1   
    30     9    34 1   
    31    10    35 1   
    32    10    36 1   
    33    11    37 1   
    34    12    18 1   
    35    12    38 1   
    36    14    39 1   
    37    14    40 1   
    38    16    18 2   
    39    17    18 2   
@<TRIPOS>SUBSTRUCTURE
     1 MOL         1 TEMP              0 ****  ****    0 ROOT
