@<TRIPOS>MOLECULE
MOL
   40    39     1     0     0
SMALL
No Charge or Current Charge


@<TRIPOS>ATOM
 1  C1  -2.496000  -0.958000  -0.301000  C.2  1  MOL  0.636107 
 2  C2  3.566000  -0.666000  0.637000  C.cat  1  MOL  0.769851 
 3  C3  -4.674000  -1.205000  0.746000  C.3  1  MOL  -0.071473 
 4  C4  -3.002000  0.191000  1.883000  C.3  1  MOL  -0.089282 
 5  C5  -0.514000  3.597000  0.092000  C.3  1  MOL  -0.412669 
 6  C6  0.478000  -2.430000  -0.584000  C.3  1  MOL  -0.069101 
 7  C7  -0.149000  -1.182000  -1.256000  C.3  1  MOL  -0.377967 
 8  C8  1.993000  -2.322000  -0.364000  C.3  1  MOL  -0.130240 
 9  C9  -1.050000  -0.373000  -0.298000  C.3  1  MOL  0.087449 
 10  N1  3.739000  0.597000  1.050000  N.3  1  MOL  -0.951107 
 11  N2  2.330000  -1.108000  0.398000  N.3  1  MOL  -0.457611 
 12  N3  -1.173000  1.067000  -0.639000  N.3  1  MOL  -0.497998 
 13  N4  -3.306000  -0.685000  0.760000  N.am  1  MOL  -0.344286 
 14  N5  4.628000  -1.470000  0.468000  N.3  1  MOL  -0.805681 
 15  O1  -2.851000  -1.641000  -1.258000  O.2  1  MOL  -0.560519 
 16  O2  0.947000  2.233000  -1.666000  O.2  1  MOL  -0.518639 
 17  O3  0.912000  1.443000  0.747000  O.2  1  MOL  -0.504040 
 18  S1  0.199000  2.033000  -0.423000  S.o2  1  MOL  0.947437 
 19  H1  -4.873000  -1.744000  1.678000  H  1  MOL  0.087465 
 20  H2  -4.787000  -1.878000  -0.102000  H  1  MOL  0.084069 
 21  H3  -5.394000  -0.382000  0.657000  H  1  MOL  0.088028 
 22  H4  -3.646000  1.080000  1.857000  H  1  MOL  0.094118 
 23  H5  -1.966000  0.523000  1.875000  H  1  MOL  0.067267 
 24  H6  -3.191000  -0.337000  2.826000  H  1  MOL  0.084095 
 25  H7  0.316000  4.291000  0.247000  H  1  MOL  0.187843 
 26  H8  -1.161000  3.962000  -0.708000  H  1  MOL  0.155917 
 27  H9  -1.077000  3.443000  1.013000  H  1  MOL  0.144151 
 28  H10  -0.010000  -2.638000  0.377000  H  1  MOL  0.095411 
 29  H11  0.310000  -3.318000  -1.199000  H  1  MOL  0.095411 
 30  H12  0.638000  -0.530000  -1.652000  H  1  MOL  0.158981 
 31  H13  -0.767000  -1.486000  -2.103000  H  1  MOL  0.158981 
 32  H14  2.343000  -3.206000  0.183000  H  1  MOL  0.127329 
 33  H15  2.510000  -2.290000  -1.332000  H  1  MOL  0.127329 
 34  H16  -0.649000  -0.406000  0.716000  H  1  MOL  0.107900 
 35  H17  2.940000  1.228000  1.060000  H  1  MOL  0.471460 
 36  H18  4.619000  0.916000  1.426000  H  1  MOL  0.471460 
 37  H19  1.601000  -0.412000  0.547000  H  1  MOL  0.348690 
 38  H20  -1.538000  1.209000  -1.583000  H  1  MOL  0.346457 
 39  H21  5.571000  -1.116000  0.532000  H  1  MOL  0.423704 
 40  H22  4.513000  -2.450000  0.258000  H  1  MOL  0.423704 
@<TRIPOS>BOND
     1     1     9 1   
     2     1    13 am  
     3     1    15 2   
     4     2    10 2   
     5     2    11 1   
     6     2    14 1   
     7     3    13 1   
     8     3    19 1   
     9     3    20 1   
    10     3    21 1   
    11     4    13 1   
    12     4    22 1   
    13     4    23 1   
    14     4    24 1   
    15     5    18 1   
    16     5    25 1   
    17     5    26 1   
    18     5    27 1   
    19     6     7 1   
    20     6     8 1   
    21     6    28 1   
    22     6    29 1   
    23     7     9 1   
    24     7    30 1   
    25     7    31 1   
    26     8    11 1   
    27     8    32 1   
    28     8    33 1   
    29     9    12 1   
    30     9    34 1   
    31    10    35 1   
    32    10    36 1   
    33    11    37 1   
    34    12    18 1   
    35    12    38 1   
    36    14    39 1   
    37    14    40 1   
    38    16    18 2   
    39    17    18 2   
@<TRIPOS>SUBSTRUCTURE
     1 MOL         1 TEMP              0 ****  ****    0 ROOT
