@<TRIPOS>MOLECULE
MOL
   26    26     1     0     0
SMALL
No Charge or Current Charge


@<TRIPOS>ATOM
      1 C1           1.5040    -0.0260    -0.4430 C.2        1 MOL       0.000000
      2 C2          -1.8080    -0.9890    -0.0580 C.2        1 MOL       0.000000
      3 C3          -0.4050     2.3380     0.6430 C.3        1 MOL       0.000000
      4 C4           0.0710     2.0420    -0.7880 C.3        1 MOL       0.000000
      5 C5          -1.4500     1.2450     0.9040 C.3        1 MOL       0.000000
      6 C6           0.1040     0.4990    -0.8330 C.3        1 MOL       0.000000
      7 C7          -1.3910    -2.0450    -1.0720 C.3        1 MOL       0.000000
      8 C8           2.8110    -1.3100     1.2100 C.3        1 MOL       0.000000
      9 N1          -0.9890     0.1120     0.0740 N.am       1 MOL       0.000000
     10 N2           1.5690    -0.7580     0.7000 N.am       1 MOL       0.000000
     11 O1           2.4680     0.2350    -1.1540 O.2        1 MOL       0.000000
     12 O2          -2.8200    -1.1010     0.6240 O.2        1 MOL       0.000000
     13 H1           0.4320     2.2430     1.3460 H          1 MOL       0.000000
     14 H2          -0.8220     3.3420     0.7580 H          1 MOL       0.000000
     15 H3          -0.6630     2.4100    -1.5150 H          1 MOL       0.000000
     16 H4           1.0440     2.4680    -1.0370 H          1 MOL       0.000000
     17 H5          -1.5250     0.9490     1.9540 H          1 MOL       0.000000
     18 H6          -2.4550     1.5450     0.5820 H          1 MOL       0.000000
     19 H7          -0.0760     0.1350    -1.8490 H          1 MOL       0.000000
     20 H8          -0.3320    -2.3070    -0.9910 H          1 MOL       0.000000
     21 H9          -1.5690    -1.6910    -2.0950 H          1 MOL       0.000000
     22 H10         -2.0030    -2.9320    -0.9020 H          1 MOL       0.000000
     23 H11          3.5960    -1.0640     0.4930 H          1 MOL       0.000000
     24 H12          2.7450    -2.3990     1.3130 H          1 MOL       0.000000
     25 H13          3.0670    -0.8790     2.1850 H          1 MOL       0.000000
     26 H14          0.7080    -0.8940     1.2120 H          1 MOL       0.000000
@<TRIPOS>BOND
     1     1     6 1   
     2     1    10 am  
     3     1    11 2   
     4     2     7 1   
     5     2     9 am  
     6     2    12 2   
     7     3     4 1   
     8     3     5 1   
     9     3    13 1   
    10     3    14 1   
    11     4     6 1   
    12     4    15 1   
    13     4    16 1   
    14     5     9 1   
    15     5    17 1   
    16     5    18 1   
    17     6     9 1   
    18     6    19 1   
    19     7    20 1   
    20     7    21 1   
    21     7    22 1   
    22     8    10 1   
    23     8    23 1   
    24     8    24 1   
    25     8    25 1   
    26    10    26 1   
@<TRIPOS>SUBSTRUCTURE
     1 MOL         1 TEMP              0 ****  ****    0 ROOT
