@<TRIPOS>MOLECULE
MOL
   26    26     1     0     0
SMALL
No Charge or Current Charge


@<TRIPOS>ATOM
 1  C1  1.504000  -0.026000  -0.443000  C.2  1  MOL  0.512522 
 2  C2  -1.808000  -0.989000  -0.058000  C.2  1  MOL  0.385640 
 3  C3  -0.405000  2.338000  0.643000  C.3  1  MOL  0.061393 
 4  C4  0.071000  2.042000  -0.788000  C.3  1  MOL  0.047554 
 5  C5  -1.450000  1.245000  0.904000  C.3  1  MOL  0.081298 
 6  C6  0.104000  0.499000  -0.833000  C.3  1  MOL  -0.036315 
 7  C7  -1.391000  -2.045000  -1.072000  C.3  1  MOL  0.001210 
 8  C8  2.811000  -1.310000  1.210000  C.3  1  MOL  -0.007740 
 9  N1  -0.989000  0.112000  0.074000  N.am  1  MOL  -0.314144 
 10  N2  1.569000  -0.758000  0.700000  N.am  1  MOL  -0.472190 
 11  O1  2.468000  0.235000  -1.154000  O.2  1  MOL  -0.499217 
 12  O2  -2.820000  -1.101000  0.624000  O.2  1  MOL  -0.473840 
 13  H1  0.432000  2.243000  1.346000  H  1  MOL  -0.001812 
 14  H2  -0.822000  3.342000  0.758000  H  1  MOL  -0.001812 
 15  H3  -0.663000  2.410000  -1.515000  H  1  MOL  0.009147 
 16  H4  1.044000  2.468000  -1.037000  H  1  MOL  0.009147 
 17  H5  -1.525000  0.949000  1.954000  H  1  MOL  0.032549 
 18  H6  -2.455000  1.545000  0.582000  H  1  MOL  0.032549 
 19  H7  -0.076000  0.135000  -1.849000  H  1  MOL  0.067143 
 20  H8  -0.332000  -2.307000  -0.991000  H  1  MOL  0.029000 
 21  H9  -1.569000  -1.691000  -2.095000  H  1  MOL  0.029000 
 22  H10  -2.003000  -2.932000  -0.902000  H  1  MOL  0.029000 
 23  H11  3.596000  -1.064000  0.493000  H  1  MOL  0.061720 
 24  H12  2.745000  -2.399000  1.313000  H  1  MOL  0.061720 
 25  H13  3.067000  -0.879000  2.185000  H  1  MOL  0.061720 
 26  H14  0.708000  -0.894000  1.212000  H  1  MOL  0.294760 
@<TRIPOS>BOND
     1     1     6 1   
     2     1    10 am  
     3     1    11 2   
     4     2     7 1   
     5     2     9 am  
     6     2    12 2   
     7     3     4 1   
     8     3     5 1   
     9     3    13 1   
    10     3    14 1   
    11     4     6 1   
    12     4    15 1   
    13     4    16 1   
    14     5     9 1   
    15     5    17 1   
    16     5    18 1   
    17     6     9 1   
    18     6    19 1   
    19     7    20 1   
    20     7    21 1   
    21     7    22 1   
    22     8    10 1   
    23     8    23 1   
    24     8    24 1   
    25     8    25 1   
    26    10    26 1   
@<TRIPOS>SUBSTRUCTURE
     1 MOL         1 TEMP              0 ****  ****    0 ROOT
