@<TRIPOS>MOLECULE
*****
 37 37 0 0 0
SMALL
GASTEIGER

@<TRIPOS>ATOM
      1 C           3.2160   -0.6034   -2.6636 C.3     1  UNL1        0.0030
      2 N           2.5109    0.2574   -1.7267 N.am    1  UNL1        0.3030
      3 C           1.0574    0.3131   -1.8336 C.3     1  UNL1        0.0030
      4 C           3.1301    0.9563   -0.7072 C.2     1  UNL1        0.2632
      5 O           2.5158    1.5981    0.1535 O.2     1  UNL1        0.2694
      6 C           4.6737    0.9405   -0.6140 C.3     1  UNL1        0.0536
      7 H           5.0564   -0.0503   -0.8595 H       1  UNL1        0.0949
      8 N           5.0716    1.1800    0.8166 N.4     1  UNL1        0.2274
      9 H           6.0704    1.3610    0.9537 H       1  UNL1        0.2002
     10 H           4.5227    1.9800    1.1736 H       1  UNL1        0.2002
     11 H           4.7940    0.3822    1.4024 H       1  UNL1        0.2002
     12 C           5.2645    2.0449   -1.4982 C.3     1  UNL1        0.0017
     13 C           6.8089    2.0752   -1.6206 C.3     1  UNL1        0.0355
     14 C           7.4311    0.7553   -2.1051 C.3     1  UNL1        0.0500
     15 C           7.0276    0.4244   -3.5386 C.3     1  UNL1        0.0528
     16 C           7.4117    1.5482   -4.4962 C.3     1  UNL1        0.0530
     17 C           6.8982    2.9123   -4.0373 C.3     1  UNL1        0.0528
     18 C           7.2495    3.2026   -2.5760 C.3     1  UNL1        0.0500
     19 H           2.5320   -1.1098   -3.3474 H       1  UNL1        0.0428
     20 H           3.7875   -1.3510   -2.1070 H       1  UNL1        0.0428
     21 H           3.8944    0.0167   -3.2474 H       1  UNL1        0.0428
     22 H           0.7069   -0.2187   -2.7228 H       1  UNL1        0.0428
     23 H           0.7427    1.3587   -1.8993 H       1  UNL1        0.0428
     24 H           0.6146   -0.1394   -0.9417 H       1  UNL1        0.0428
     25 H           4.9291    3.0218   -1.1216 H       1  UNL1        0.0328
     26 H           4.8161    1.9643   -2.4933 H       1  UNL1        0.0328
     27 H           7.2260    2.3025   -0.6317 H       1  UNL1        0.0303
     28 H           7.1771   -0.0729   -1.4366 H       1  UNL1        0.0268
     29 H           8.5253    0.8460   -2.0659 H       1  UNL1        0.0268
     30 H           5.9511    0.2546   -3.5944 H       1  UNL1        0.0265
     31 H           7.5022   -0.5115   -3.8530 H       1  UNL1        0.0265
     32 H           7.0230    1.3268   -5.4967 H       1  UNL1        0.0265
     33 H           8.5043    1.5853   -4.5795 H       1  UNL1        0.0265
     34 H           5.8121    2.9595   -4.1764 H       1  UNL1        0.0265
     35 H           7.3218    3.6947   -4.6771 H       1  UNL1        0.0265
     36 H           6.8033    4.1560   -2.2698 H       1  UNL1        0.0268
     37 H           8.3373    3.3291   -2.4960 H       1  UNL1        0.0268
@<TRIPOS>BOND
     1     1     2    1
     2     2     3    1
     3     2     4   am
     4     4     5    2
     5     6     8    1
     6     8     9    1
     7     8    10    1
     8     8    11    1
     9     6    12    1
    10    12    13    1
    11    13    14    1
    12    14    15    1
    13    15    16    1
    14    16    17    1
    15    17    18    1
    16    13    18    1
    17     6     7    1
    18     6     4    1
    19     1    19    1
    20     1    20    1
    21     1    21    1
    22     3    22    1
    23     3    23    1
    24     3    24    1
    25    12    25    1
    26    12    26    1
    27    13    27    1
    28    14    28    1
    29    14    29    1
    30    15    30    1
    31    15    31    1
    32    16    32    1
    33    16    33    1
    34    17    34    1
    35    17    35    1
    36    18    36    1
    37    18    37    1
