@<TRIPOS>MOLECULE
MOL
   16    16     1     0     0
SMALL
No Charge or Current Charge


@<TRIPOS>ATOM
 1  N1  -3.357000  0.127000  0.290000  N.am  1  MOL  -0.916361 
 2  C1  -2.240000  -0.609000  -0.032000  C.2  1  MOL  0.733968 
 3  O1  -2.307000  -1.795000  -0.323000  O.2  1  MOL  -0.573851 
 4  C2  -0.933000  0.138000  -0.038000  C.ar  1  MOL  -0.082322 
 5  C3  -0.841000  1.534000  -0.110000  C.ar  1  MOL  -0.131142 
 6  C4  0.409000  2.153000  -0.115000  C.ar  1  MOL  -0.187970 
 7  C5  1.576000  1.391000  -0.047000  C.ar  1  MOL  -0.053036 
 8  C6  1.472000  0.000000  0.014000  C.ar  1  MOL  -0.030315 
 9  Cl1  2.937000  -0.967000  0.092000  Cl  1  MOL  -0.102904 
 10  C7  0.234000  -0.633000  0.012000  C.ar  1  MOL  -0.039970 
 11  H1  -4.204000  -0.414000  0.415000  H  1  MOL  0.394969 
 12  H2  -3.272000  0.960000  0.853000  H  1  MOL  0.394969 
 13  H3  -1.737000  2.141000  -0.200000  H  1  MOL  0.141420 
 14  H4  0.480000  3.235000  -0.181000  H  1  MOL  0.164490 
 15  H5  2.552000  1.864000  -0.047000  H  1  MOL  0.144823 
 16  H6  0.151000  -1.713000  0.045000  H  1  MOL  0.143232 
@<TRIPOS>BOND
     1     1     2 am  
     2     1    11 1   
     3     1    12 1   
     4     2     3 2   
     5     2     4 1   
     6     4     5 ar  
     7     4    10 ar  
     8     5     6 ar  
     9     5    13 1   
    10     6     7 ar  
    11     6    14 1   
    12     7     8 ar  
    13     7    15 1   
    14     8     9 1   
    15     8    10 ar  
    16    10    16 1   
@<TRIPOS>SUBSTRUCTURE
     1 MOL         1 TEMP              0 ****  ****    0 ROOT
