@<TRIPOS>MOLECULE
MOL
   16    16     1     0     0
SMALL
No Charge or Current Charge


@<TRIPOS>ATOM
      1 N1          -3.3570     0.1270     0.2900 N.am       1 MOL       0.000000
      2 C1          -2.2400    -0.6090    -0.0320 C.2        1 MOL       0.000000
      3 O1          -2.3070    -1.7950    -0.3230 O.2        1 MOL       0.000000
      4 C2          -0.9330     0.1380    -0.0380 C.ar       1 MOL       0.000000
      5 C3          -0.8410     1.5340    -0.1100 C.ar       1 MOL       0.000000
      6 C4           0.4090     2.1530    -0.1150 C.ar       1 MOL       0.000000
      7 C5           1.5760     1.3910    -0.0470 C.ar       1 MOL       0.000000
      8 C6           1.4720     0.0000     0.0140 C.ar       1 MOL       0.000000
      9 Cl1          2.9370    -0.9670     0.0920 Cl         1 MOL       0.000000
     10 C7           0.2340    -0.6330     0.0120 C.ar       1 MOL       0.000000
     11 H1          -4.2040    -0.4140     0.4150 H          1 MOL       0.000000
     12 H2          -3.2720     0.9600     0.8530 H          1 MOL       0.000000
     13 H3          -1.7370     2.1410    -0.2000 H          1 MOL       0.000000
     14 H4           0.4800     3.2350    -0.1810 H          1 MOL       0.000000
     15 H5           2.5520     1.8640    -0.0470 H          1 MOL       0.000000
     16 H6           0.1510    -1.7130     0.0450 H          1 MOL       0.000000
@<TRIPOS>BOND
     1     1     2 am  
     2     1    11 1   
     3     1    12 1   
     4     2     3 2   
     5     2     4 1   
     6     4     5 ar  
     7     4    10 ar  
     8     5     6 ar  
     9     5    13 1   
    10     6     7 ar  
    11     6    14 1   
    12     7     8 ar  
    13     7    15 1   
    14     8     9 1   
    15     8    10 ar  
    16    10    16 1   
@<TRIPOS>SUBSTRUCTURE
     1 MOL         1 TEMP              0 ****  ****    0 ROOT
