@<TRIPOS>MOLECULE
*****
 41 41 0 0 0
SMALL
GASTEIGER

@<TRIPOS>ATOM
      1 C           3.9510    1.9449   -0.7409 C.3     1  UNL1        0.0122
      2 C           5.4061    1.6494   -0.9779 C.2     1  UNL1        0.2105
      3 O           6.2397    2.5541   -1.0425 O.2     1  UNL1        0.2761
      4 N           5.8083    0.3602   -1.1213 N.am    1  UNL1        0.3042
      5 C           5.0697   -0.8929   -0.9359 C.3     1  UNL1        0.0998
      6 H           4.0237   -0.6731   -1.1770 H       1  UNL1        0.0595
      7 C           5.1440   -1.3307    0.5398 C.3     1  UNL1        0.0231
      8 C           6.4538   -1.9306    1.1181 C.3     1  UNL1        0.0389
      9 C           7.7256   -1.0632    1.1346 C.3     1  UNL1        0.0501
     10 C           7.7268    0.0718    2.1599 C.3     1  UNL1        0.0528
     11 C           7.3432   -0.3906    3.5632 C.3     1  UNL1        0.0530
     12 C           6.0918   -1.2592    3.5688 C.3     1  UNL1        0.0528
     13 C           6.1868   -2.4101    2.5642 C.3     1  UNL1        0.0501
     14 C           5.5608   -1.9242   -2.0000 C.2     1  UNL1        0.2354
     15 O           6.5980   -1.6865   -2.6322 O.2     1  UNL1        0.2736
     16 N           4.8212   -3.0777   -2.2520 N.am    1  UNL1        0.3061
     17 C           5.2534   -3.9733   -3.3221 C.3     1  UNL1        0.0029
     18 C           3.5750   -3.4605   -1.6095 C.3     1  UNL1        0.0029
     19 H           3.7858    3.0214   -0.8625 H       1  UNL1        0.0322
     20 H           3.6631    1.6599    0.2731 H       1  UNL1        0.0322
     21 H           3.3243    1.4341   -1.4761 H       1  UNL1        0.0322
     22 H           6.7901    0.2623   -1.3613 H       1  UNL1        0.1494
     23 H           4.3751   -2.0967    0.6921 H       1  UNL1        0.0290
     24 H           4.8270   -0.4826    1.1576 H       1  UNL1        0.0290
     25 H           6.6824   -2.8192    0.5152 H       1  UNL1        0.0301
     26 H           7.9640   -0.6738    0.1423 H       1  UNL1        0.0268
     27 H           8.5656   -1.7254    1.3925 H       1  UNL1        0.0268
     28 H           7.0503    0.8691    1.8350 H       1  UNL1        0.0265
     29 H           8.7319    0.5124    2.2044 H       1  UNL1        0.0265
     30 H           7.1883    0.4839    4.2076 H       1  UNL1        0.0265
     31 H           8.1750   -0.9546    4.0040 H       1  UNL1        0.0265
     32 H           5.2172   -0.6355    3.3526 H       1  UNL1        0.0265
     33 H           5.9390   -1.6668    4.5748 H       1  UNL1        0.0265
     34 H           5.2653   -3.0023    2.6041 H       1  UNL1        0.0268
     35 H           6.9988   -3.0816    2.8708 H       1  UNL1        0.0268
     36 H           6.2359   -3.7145   -3.7235 H       1  UNL1        0.0428
     37 H           4.5211   -3.9220   -4.1357 H       1  UNL1        0.0428
     38 H           5.2877   -4.9986   -2.9404 H       1  UNL1        0.0428
     39 H           3.2061   -2.7144   -0.9116 H       1  UNL1        0.0428
     40 H           3.7398   -4.4045   -1.0796 H       1  UNL1        0.0428
     41 H           2.8108   -3.6127   -2.3782 H       1  UNL1        0.0428
@<TRIPOS>BOND
     1     1     2    1
     2     2     3    2
     3     2     4   am
     4     5     7    1
     5     7     8    1
     6     8     9    1
     7     9    10    1
     8    10    11    1
     9    11    12    1
    10    12    13    1
    11     8    13    1
    12     5    14    1
    13    14    15    2
    14    14    16   am
    15    16    17    1
    16    16    18    1
    17     5     6    1
    18     5     4    1
    19     1    19    1
    20     1    20    1
    21     1    21    1
    22     4    22    1
    23     7    23    1
    24     7    24    1
    25     8    25    1
    26     9    26    1
    27     9    27    1
    28    10    28    1
    29    10    29    1
    30    11    30    1
    31    11    31    1
    32    12    32    1
    33    12    33    1
    34    13    34    1
    35    13    35    1
    36    17    36    1
    37    17    37    1
    38    17    38    1
    39    18    39    1
    40    18    40    1
    41    18    41    1
