@<TRIPOS>MOLECULE
*****
 26 26 0 0 0
SMALL
GASTEIGER

@<TRIPOS>ATOM
      1 C           1.6216   -1.4356   -0.6862 C.3     1  UNL1        0.0122
      2 C           2.8130   -0.6407   -0.2291 C.2     1  UNL1        0.2102
      3 O           3.2129   -0.6473    0.9307 O.2     1  UNL1        0.2761
      4 N           3.4024    0.0812   -1.2359 N.am    1  UNL1        0.3114
      5 C           4.6049    0.8496   -1.0036 C.3     1  UNL1        0.0372
      6 C           5.0144    1.6202   -2.2386 C.ar    1  UNL1        0.0236
      7 C           4.9816    3.0285   -2.1635 C.ar    1  UNL1        0.0384
      8 C           5.2201    3.8110   -3.2899 C.ar    1  UNL1        0.0413
      9 CL          5.0645    5.5214   -3.1923 Cl      1  UNL1        0.0835
     10 C           5.5470    3.2132   -4.4992 C.ar    1  UNL1        0.0430
     11 C           5.6495    1.8231   -4.5775 C.ar    1  UNL1        0.0547
     12 C           5.3698    1.0051   -3.4641 C.ar    1  UNL1        0.0174
     13 C           5.4587   -0.4916   -3.6560 C.3     1  UNL1        0.0695
     14 O           6.7806   -0.9499   -3.4347 O.3     1  UNL1        0.3904
     15 H           1.1664   -1.9402    0.1702 H       1  UNL1        0.0322
     16 H           1.9364   -2.1882   -1.4148 H       1  UNL1        0.0322
     17 H           0.8802   -0.7708   -1.1384 H       1  UNL1        0.0322
     18 H           3.0295    0.0216   -2.1732 H       1  UNL1        0.1490
     19 H           5.4093    0.1915   -0.6586 H       1  UNL1        0.0512
     20 H           4.3806    1.5368   -0.1772 H       1  UNL1        0.0512
     21 H           4.7396    3.5192   -1.2218 H       1  UNL1        0.0635
     22 H           5.7146    3.8196   -5.3851 H       1  UNL1        0.0632
     23 H           5.9235    1.3756   -5.5314 H       1  UNL1        0.0622
     24 H           5.1545   -0.7622   -4.6745 H       1  UNL1        0.0607
     25 H           4.7945   -1.0432   -2.9904 H       1  UNL1        0.0607
     26 H           7.3272   -0.6205   -4.1671 H       1  UNL1        0.2098
@<TRIPOS>BOND
     1     1     2    1
     2     2     3    2
     3     2     4   am
     4     4     5    1
     5     5     6    1
     6     6     7   ar
     7     7     8   ar
     8     8     9    1
     9     8    10   ar
    10    10    11   ar
    11    11    12   ar
    12     6    12   ar
    13    12    13    1
    14    13    14    1
    15     1    15    1
    16     1    16    1
    17     1    17    1
    18     4    18    1
    19     5    19    1
    20     5    20    1
    21     7    21    1
    22    10    22    1
    23    11    23    1
    24    13    24    1
    25    13    25    1
    26    14    26    1
