@<TRIPOS>MOLECULE
*****
 23 23 0 0 0
SMALL
GASTEIGER

@<TRIPOS>ATOM
      1 C           4.0283    3.3344    1.8680 C.3     1  UNL1        0.0001
      2 N           3.9003    1.9650    1.4360 N.am    1  UNL1        0.3168
      3 C           4.9461    1.0683    1.5829 C.2     1  UNL1        0.2334
      4 O           6.0136    1.4158    2.0934 O.2     1  UNL1        0.2738
      5 C           4.6278   -0.3831    1.0607 C.3     1  UNL1        0.1035
      6 H           3.5539   -0.5567    0.9162 H       1  UNL1        0.0597
      7 C           5.2946   -1.5598    1.8064 C.3     1  UNL1        0.0099
      8 C           6.3074   -1.6594    0.6603 C.3     1  UNL1        0.0176
      9 N           5.4032   -0.8175   -0.0968 N.am    1  UNL1        0.2900
     10 C           5.2422   -0.7169   -1.4437 C.2     1  UNL1        0.2131
     11 C           4.0862    0.1222   -1.9155 C.3     1  UNL1        0.0124
     12 O           5.9638   -1.3082   -2.2451 O.2     1  UNL1        0.2759
     13 H           3.1151    3.8731    1.6047 H       1  UNL1        0.0426
     14 H           4.8889    3.7945    1.3745 H       1  UNL1        0.0426
     15 H           4.1757    3.3564    2.9511 H       1  UNL1        0.0426
     16 H           3.0257    1.6630    1.0284 H       1  UNL1        0.1484
     17 H           4.6491   -2.4398    1.9104 H       1  UNL1        0.0303
     18 H           5.7278   -1.3279    2.7839 H       1  UNL1        0.0303
     19 H           6.4438   -2.6624    0.2489 H       1  UNL1        0.0465
     20 H           7.2752   -1.1837    0.8411 H       1  UNL1        0.0465
     21 H           3.8098    0.8856   -1.1873 H       1  UNL1        0.0323
     22 H           3.2268   -0.5270   -2.1031 H       1  UNL1        0.0323
     23 H           4.3682    0.6327   -2.8407 H       1  UNL1        0.0323
@<TRIPOS>BOND
     1     1     2    1
     2     2     3   am
     3     3     4    2
     4     5     7    1
     5     7     8    1
     6     8     9    1
     7     5     9    1
     8     9    10   am
     9    10    11    1
    10    10    12    2
    11     5     6    1
    12     5     3    1
    13     1    13    1
    14     1    14    1
    15     1    15    1
    16     2    16    1
    17     7    17    1
    18     7    18    1
    19     8    19    1
    20     8    20    1
    21    11    21    1
    22    11    22    1
    23    11    23    1
