@<TRIPOS>MOLECULE
MOL
   28    28     1     0     0
SMALL
No Charge or Current Charge


@<TRIPOS>ATOM
      1 C1          -1.5040     1.9060    -0.3120 C.ar       1 MOL       0.000000
      2 C2          -2.5510     1.0150    -0.5170 C.ar       1 MOL       0.000000
      3 C3          -1.2310    -0.7130     0.5500 C.ar       1 MOL       0.000000
      4 C4          -0.3100     1.5110     0.3130 C.ar       1 MOL       0.000000
      5 C5          -0.1720     0.1780     0.7530 C.ar       1 MOL       0.000000
      6 C6          -2.4030    -0.3020    -0.0830 C.ar       1 MOL       0.000000
      7 C7           2.6490    -1.1840    -0.2420 C.2        1 MOL       0.000000
      8 C8           3.3470    -2.3790    -0.8430 C.3        1 MOL       0.000000
      9 C9           1.0650    -0.3510     1.4750 C.3        1 MOL       0.000000
     10 C10          0.7800     2.5430     0.4600 C.3        1 MOL       0.000000
     11 N1           1.7720    -1.4140     0.7580 N.am       1 MOL       0.000000
     12 N2           1.8250     2.3710    -0.6320 N.4        1 MOL       0.000000
     13 O1           2.8970    -0.0370    -0.6600 O.2        1 MOL       0.000000
     14 Cl1         -3.6970    -1.4440    -0.3180 Cl         1 MOL       0.000000
     15 H1          -1.6230     2.9380    -0.6360 H          1 MOL       0.000000
     16 H2          -3.4700     1.3350    -0.9960 H          1 MOL       0.000000
     17 H3          -1.1500    -1.7400     0.8930 H          1 MOL       0.000000
     18 H4           3.1290    -2.4150    -1.9150 H          1 MOL       0.000000
     19 H5           4.4270    -2.2450    -0.7340 H          1 MOL       0.000000
     20 H6           3.0560    -3.3280    -0.3860 H          1 MOL       0.000000
     21 H7           1.7850     0.4430     1.6870 H          1 MOL       0.000000
     22 H8           0.7660    -0.7680     2.4410 H          1 MOL       0.000000
     23 H9           0.3790     3.5540     0.3660 H          1 MOL       0.000000
     24 H10          1.3220     2.4830     1.4050 H          1 MOL       0.000000
     25 H11          1.6280    -2.3680     1.0560 H          1 MOL       0.000000
     26 H12          1.3990     2.4830    -1.5580 H          1 MOL       0.000000
     27 H13          2.2490     1.3810    -0.5920 H          1 MOL       0.000000
     28 H14          2.5830     3.0560    -0.5510 H          1 MOL       0.000000
@<TRIPOS>BOND
     1     1     2 ar  
     2     1     4 ar  
     3     1    15 1   
     4     2     6 ar  
     5     2    16 1   
     6     3     5 ar  
     7     3     6 ar  
     8     3    17 1   
     9     4     5 ar  
    10     4    10 1   
    11     5     9 1   
    12     6    14 1   
    13     7     8 1   
    14     7    11 am  
    15     7    13 2   
    16     8    18 1   
    17     8    19 1   
    18     8    20 1   
    19     9    11 1   
    20     9    21 1   
    21     9    22 1   
    22    10    12 1   
    23    10    23 1   
    24    10    24 1   
    25    11    25 1   
    26    12    26 1   
    27    12    27 1   
    28    12    28 1   
@<TRIPOS>SUBSTRUCTURE
     1 MOL         1 TEMP              0 ****  ****    0 ROOT
