@<TRIPOS>MOLECULE
MOL
   28    28     1     0     0
SMALL
No Charge or Current Charge


@<TRIPOS>ATOM
 1  C1  -1.504000  1.906000  -0.312000  C.ar  1  MOL  -0.149996 
 2  C2  -2.551000  1.015000  -0.517000  C.ar  1  MOL  -0.042560 
 3  C3  -1.231000  -0.713000  0.550000  C.ar  1  MOL  -0.122405 
 4  C4  -0.310000  1.511000  0.313000  C.ar  1  MOL  -0.077224 
 5  C5  -0.172000  0.178000  0.753000  C.ar  1  MOL  -0.108959 
 6  C6  -2.403000  -0.302000  -0.083000  C.ar  1  MOL  -0.018893 
 7  C7  2.649000  -1.184000  -0.242000  C.2  1  MOL  0.510929 
 8  C8  3.347000  -2.379000  -0.843000  C.3  1  MOL  -0.313908 
 9  C9  1.065000  -0.351000  1.475000  C.3  1  MOL  0.545511 
 10  C10  0.780000  2.543000  0.460000  C.3  1  MOL  -0.042296 
 11  N1  1.772000  -1.414000  0.758000  N.am  1  MOL  -0.353167 
 12  N2  1.825000  2.371000  -0.632000  N.4  1  MOL  -0.357255 
 13  O1  2.897000  -0.037000  -0.660000  O.2  1  MOL  -0.514977 
 14  Cl1  -3.697000  -1.444000  -0.318000  Cl  1  MOL  -0.029937 
 15  H1  -1.623000  2.938000  -0.636000  H  1  MOL  0.166635 
 16  H2  -3.470000  1.335000  -0.996000  H  1  MOL  0.148665 
 17  H3  -1.150000  -1.740000  0.893000  H  1  MOL  0.147569 
 18  H4  3.129000  -2.415000  -1.915000  H  1  MOL  0.111818 
 19  H5  4.427000  -2.245000  -0.734000  H  1  MOL  0.116842 
 20  H6  3.056000  -3.328000  -0.386000  H  1  MOL  0.089295 
 21  H7  1.785000  0.443000  1.687000  H  1  MOL  -0.068356 
 22  H8  0.766000  -0.768000  2.441000  H  1  MOL  -0.068356 
 23  H9  0.379000  3.554000  0.366000  H  1  MOL  0.129631 
 24  H10  1.322000  2.483000  1.405000  H  1  MOL  0.129631 
 25  H11  1.628000  -2.368000  1.056000  H  1  MOL  0.256949 
 26  H12  1.399000  2.483000  -1.558000  H  1  MOL  0.304938 
 27  H13  2.249000  1.381000  -0.592000  H  1  MOL  0.304938 
 28  H14  2.583000  3.056000  -0.551000  H  1  MOL  0.304938 
@<TRIPOS>BOND
     1     1     2 ar  
     2     1     4 ar  
     3     1    15 1   
     4     2     6 ar  
     5     2    16 1   
     6     3     5 ar  
     7     3     6 ar  
     8     3    17 1   
     9     4     5 ar  
    10     4    10 1   
    11     5     9 1   
    12     6    14 1   
    13     7     8 1   
    14     7    11 am  
    15     7    13 2   
    16     8    18 1   
    17     8    19 1   
    18     8    20 1   
    19     9    11 1   
    20     9    21 1   
    21     9    22 1   
    22    10    12 1   
    23    10    23 1   
    24    10    24 1   
    25    11    25 1   
    26    12    26 1   
    27    12    27 1   
    28    12    28 1   
@<TRIPOS>SUBSTRUCTURE
     1 MOL         1 TEMP              0 ****  ****    0 ROOT
