@<TRIPOS>MOLECULE
MOL
   25    25     1     0     0
SMALL
No Charge or Current Charge


@<TRIPOS>ATOM
 1  C1  -2.275000  -1.656000  0.037000  C.ar  1  MOL  -0.007609 
 2  C2  -2.961000  -0.678000  -0.686000  C.ar  1  MOL  -0.151126 
 3  C3  -1.095000  -1.315000  0.687000  C.ar  1  MOL  -0.209699 
 4  C4  -2.446000  0.601000  -0.727000  C.ar  1  MOL  -0.023028 
 5  C5  -0.600000  -0.014000  0.635000  C.ar  1  MOL  0.175973 
 6  C6  2.338000  -0.390000  -0.250000  C.2  1  MOL  0.510929 
 7  C7  3.659000  -0.114000  -0.934000  C.3  1  MOL  -0.313908 
 8  C8  -0.821000  2.325000  -0.143000  C.3  1  MOL  -0.189102 
 9  C9  0.677000  0.370000  1.364000  C.3  1  MOL  0.375499 
 10  N1  -1.296000  0.922000  -0.075000  N.pl3  1  MOL  0.012591 
 11  N2  1.782000  0.668000  0.461000  N.am  1  MOL  -0.353167 
 12  O1  1.756000  -1.462000  -0.296000  O.2  1  MOL  -0.514977 
 13  H1  -2.650000  -2.674000  0.083000  H  1  MOL  0.200473 
 14  H2  -3.881000  -0.897000  -1.218000  H  1  MOL  0.185409 
 15  H3  -0.516000  -2.058000  1.222000  H  1  MOL  0.172804 
 16  H4  -2.926000  1.405000  -1.269000  H  1  MOL  0.209089 
 17  H5  4.469000  -0.536000  -0.327000  H  1  MOL  0.111818 
 18  H6  3.670000  -0.625000  -1.899000  H  1  MOL  0.116842 
 19  H7  3.852000  0.952000  -1.081000  H  1  MOL  0.089295 
 20  H8  -0.908000  2.789000  0.843000  H  1  MOL  0.128437 
 21  H9  0.217000  2.334000  -0.474000  H  1  MOL  0.128437 
 22  H10  -1.441000  2.872000  -0.852000  H  1  MOL  0.128437 
 23  H11  0.502000  1.249000  1.992000  H  1  MOL  -0.020184 
 24  H12  0.927000  -0.465000  2.026000  H  1  MOL  -0.020184 
 25  H13  2.384000  1.443000  0.712000  H  1  MOL  0.256949 
@<TRIPOS>BOND
     1     1     2 ar  
     2     1     3 ar  
     3     1    13 1   
     4     2     4 ar  
     5     2    14 1   
     6     3     5 ar  
     7     3    15 1   
     8     4    10 1   
     9     4    16 1   
    10     5     9 1   
    11     5    10 2   
    12     6     7 1   
    13     6    11 am  
    14     6    12 2   
    15     7    17 1   
    16     7    18 1   
    17     7    19 1   
    18     8    10 1   
    19     8    20 1   
    20     8    21 1   
    21     8    22 1   
    22     9    11 1   
    23     9    23 1   
    24     9    24 1   
    25    11    25 1   
@<TRIPOS>SUBSTRUCTURE
     1 MOL         1 TEMP              0 ****  ****    0 ROOT
