@<TRIPOS>MOLECULE
MOL
   25    25     1     0     0
SMALL
No Charge or Current Charge


@<TRIPOS>ATOM
      1 C1          -2.2750    -1.6560     0.0370 C.ar       1 MOL       0.000000
      2 C2          -2.9610    -0.6780    -0.6860 C.ar       1 MOL       0.000000
      3 C3          -1.0950    -1.3150     0.6870 C.ar       1 MOL       0.000000
      4 C4          -2.4460     0.6010    -0.7270 C.ar       1 MOL       0.000000
      5 C5          -0.6000    -0.0140     0.6350 C.ar       1 MOL       0.000000
      6 C6           2.3380    -0.3900    -0.2500 C.2        1 MOL       0.000000
      7 C7           3.6590    -0.1140    -0.9340 C.3        1 MOL       0.000000
      8 C8          -0.8210     2.3250    -0.1430 C.3        1 MOL       0.000000
      9 C9           0.6770     0.3700     1.3640 C.3        1 MOL       0.000000
     10 N1          -1.2960     0.9220    -0.0750 N.pl3      1 MOL       0.000000
     11 N2           1.7820     0.6680     0.4610 N.am       1 MOL       0.000000
     12 O1           1.7560    -1.4620    -0.2960 O.2        1 MOL       0.000000
     13 H1          -2.6500    -2.6740     0.0830 H          1 MOL       0.000000
     14 H2          -3.8810    -0.8970    -1.2180 H          1 MOL       0.000000
     15 H3          -0.5160    -2.0580     1.2220 H          1 MOL       0.000000
     16 H4          -2.9260     1.4050    -1.2690 H          1 MOL       0.000000
     17 H5           4.4690    -0.5360    -0.3270 H          1 MOL       0.000000
     18 H6           3.6700    -0.6250    -1.8990 H          1 MOL       0.000000
     19 H7           3.8520     0.9520    -1.0810 H          1 MOL       0.000000
     20 H8          -0.9080     2.7890     0.8430 H          1 MOL       0.000000
     21 H9           0.2170     2.3340    -0.4740 H          1 MOL       0.000000
     22 H10         -1.4410     2.8720    -0.8520 H          1 MOL       0.000000
     23 H11          0.5020     1.2490     1.9920 H          1 MOL       0.000000
     24 H12          0.9270    -0.4650     2.0260 H          1 MOL       0.000000
     25 H13          2.3840     1.4430     0.7120 H          1 MOL       0.000000
@<TRIPOS>BOND
     1     1     2 ar  
     2     1     3 ar  
     3     1    13 1   
     4     2     4 ar  
     5     2    14 1   
     6     3     5 ar  
     7     3    15 1   
     8     4    10 1   
     9     4    16 1   
    10     5     9 1   
    11     5    10 2   
    12     6     7 1   
    13     6    11 am  
    14     6    12 2   
    15     7    17 1   
    16     7    18 1   
    17     7    19 1   
    18     8    10 1   
    19     8    20 1   
    20     8    21 1   
    21     8    22 1   
    22     9    11 1   
    23     9    23 1   
    24     9    24 1   
    25    11    25 1   
@<TRIPOS>SUBSTRUCTURE
     1 MOL         1 TEMP              0 ****  ****    0 ROOT
