@<TRIPOS>MOLECULE
MOL
   39    39     1     0     0
SMALL
No Charge or Current Charge


@<TRIPOS>ATOM
      1 C1          -0.2120     1.5250    -0.5180 C.2        1 MOL       0.000000
      2 C2           3.8260    -0.7500     0.2330 C.2        1 MOL       0.000000
      3 C3          -3.3640    -2.2390    -0.1470 C.3        1 MOL       0.000000
      4 C4          -2.9150    -1.7650     1.2420 C.3        1 MOL       0.000000
      5 C5          -2.1560    -2.5450    -1.0430 C.3        1 MOL       0.000000
      6 C6          -1.9580    -0.5650     1.1510 C.3        1 MOL       0.000000
      7 C7          -1.2030    -1.3420    -1.1410 C.3        1 MOL       0.000000
      8 C8          -0.7410    -0.8860     0.2590 C.3        1 MOL       0.000000
      9 C9          -1.3420     3.6650    -0.6430 C.3        1 MOL       0.000000
     10 C10         -0.9570     2.7020     1.5820 C.3        1 MOL       0.000000
     11 C11          2.3570    -1.2620     0.0590 C.3        1 MOL       0.000000
     12 C12          0.2830     0.2820     0.2540 C.3        1 MOL       0.000000
     13 N1          -0.8230     2.5390     0.1360 N.am       1 MOL       0.000000
     14 N2           1.5580    -0.1000    -0.4500 N.4        1 MOL       0.000000
     15 O1           4.6710    -1.6050     0.5430 O.co2      1 MOL       0.000000
     16 O2          -0.0380     1.5190    -1.7460 O.2        1 MOL       0.000000
     17 O3           3.9590     0.4980     0.0500 O.co2      1 MOL       0.000000
     18 H1          -4.0040    -3.1250    -0.0570 H          1 MOL       0.000000
     19 H2          -3.9750    -1.4550    -0.6180 H          1 MOL       0.000000
     20 H3          -3.7830    -1.4940     1.8550 H          1 MOL       0.000000
     21 H4          -2.4080    -2.5910     1.7620 H          1 MOL       0.000000
     22 H5          -1.6090    -3.4080    -0.6350 H          1 MOL       0.000000
     23 H6          -2.4870    -2.8310    -2.0480 H          1 MOL       0.000000
     24 H7          -2.5010     0.2960     0.7380 H          1 MOL       0.000000
     25 H8          -1.6240    -0.2830     2.1570 H          1 MOL       0.000000
     26 H9          -0.3440    -1.6140    -1.7690 H          1 MOL       0.000000
     27 H10         -1.7100    -0.5130    -1.6500 H          1 MOL       0.000000
     28 H11         -0.2200    -1.7320     0.7280 H          1 MOL       0.000000
     29 H12         -2.3750     3.8680    -0.3420 H          1 MOL       0.000000
     30 H13         -1.3060     3.4150    -1.7010 H          1 MOL       0.000000
     31 H14         -0.7400     4.5620    -0.4580 H          1 MOL       0.000000
     32 H15         -0.4980     3.6500     1.8830 H          1 MOL       0.000000
     33 H16         -0.4730     1.8980     2.1310 H          1 MOL       0.000000
     34 H17         -2.0160     2.7250     1.8610 H          1 MOL       0.000000
     35 H18          1.9630    -1.5790     1.0260 H          1 MOL       0.000000
     36 H19          2.2970    -2.0980    -0.6380 H          1 MOL       0.000000
     37 H20          0.5790     0.5050     1.2790 H          1 MOL       0.000000
     38 H21          2.3000     0.6570    -0.3530 H          1 MOL       0.000000
     39 H22          1.3460    -0.1600    -1.4520 H          1 MOL       0.000000
@<TRIPOS>BOND
     1     1    12 1   
     2     1    13 am  
     3     1    16 2   
     4     2    11 1   
     5     2    15 1   
     6     2    17 1   
     7     3     4 1   
     8     3     5 1   
     9     3    18 1   
    10     3    19 1   
    11     4     6 1   
    12     4    20 1   
    13     4    21 1   
    14     5     7 1   
    15     5    22 1   
    16     5    23 1   
    17     6     8 1   
    18     6    24 1   
    19     6    25 1   
    20     7     8 1   
    21     7    26 1   
    22     7    27 1   
    23     8    12 1   
    24     8    28 1   
    25     9    13 1   
    26     9    29 1   
    27     9    30 1   
    28     9    31 1   
    29    10    13 1   
    30    10    32 1   
    31    10    33 1   
    32    10    34 1   
    33    11    14 1   
    34    11    35 1   
    35    11    36 1   
    36    12    14 1   
    37    12    37 1   
    38    14    38 1   
    39    14    39 1   
@<TRIPOS>SUBSTRUCTURE
     1 MOL         1 TEMP              0 ****  ****    0 ROOT
