@<TRIPOS>MOLECULE
MOL
   39    39     1     0     0
SMALL
No Charge or Current Charge


@<TRIPOS>ATOM
 1  C1  -0.212000  1.525000  -0.518000  C.2  1  MOL  0.636107 
 2  C2  3.826000  -0.750000  0.233000  C.2  1  MOL  0.736937 
 3  C3  -3.364000  -2.239000  -0.147000  C.3  1  MOL  -0.000522 
 4  C4  -2.915000  -1.765000  1.242000  C.3  1  MOL  -0.002704 
 5  C5  -2.156000  -2.545000  -1.043000  C.3  1  MOL  -0.002704 
 6  C6  -1.958000  -0.565000  1.151000  C.3  1  MOL  -0.059496 
 7  C7  -1.203000  -1.342000  -1.141000  C.3  1  MOL  -0.059496 
 8  C8  -0.741000  -0.886000  0.259000  C.3  1  MOL  -0.034908 
 9  C9  -1.342000  3.665000  -0.643000  C.3  1  MOL  -0.071473 
 10  C10  -0.957000  2.702000  1.582000  C.3  1  MOL  -0.089282 
 11  C11  2.357000  -1.262000  0.059000  C.3  1  MOL  -0.051723 
 12  C12  0.283000  0.282000  0.254000  C.3  1  MOL  0.007824 
 13  N1  -0.823000  2.539000  0.136000  N.am  1  MOL  -0.344286 
 14  N2  1.558000  -0.100000  -0.450000  N.4  1  MOL  -0.006019 
 15  O1  4.671000  -1.605000  0.543000  O.co2  1  MOL  -0.694776 
 16  O2  -0.038000  1.519000  -1.746000  O.2  1  MOL  -0.560519 
 17  O3  3.959000  0.498000  0.050000  O.co2  1  MOL  -0.715282 
 18  H1  -4.004000  -3.125000  -0.057000  H  1  MOL  0.016039 
 19  H2  -3.975000  -1.455000  -0.618000  H  1  MOL  0.016039 
 20  H3  -3.783000  -1.494000  1.855000  H  1  MOL  0.003502 
 21  H4  -2.408000  -2.591000  1.762000  H  1  MOL  0.003502 
 22  H5  -1.609000  -3.408000  -0.635000  H  1  MOL  0.003502 
 23  H6  -2.487000  -2.831000  -2.048000  H  1  MOL  0.003502 
 24  H7  -2.501000  0.296000  0.738000  H  1  MOL  0.033780 
 25  H8  -1.624000  -0.283000  2.157000  H  1  MOL  0.033780 
 26  H9  -0.344000  -1.614000  -1.769000  H  1  MOL  0.033780 
 27  H10  -1.710000  -0.513000  -1.650000  H  1  MOL  0.033780 
 28  H11  -0.220000  -1.732000  0.728000  H  1  MOL  0.071287 
 29  H12  -2.375000  3.868000  -0.342000  H  1  MOL  0.087465 
 30  H13  -1.306000  3.415000  -1.701000  H  1  MOL  0.084069 
 31  H14  -0.740000  4.562000  -0.458000  H  1  MOL  0.088028 
 32  H15  -0.498000  3.650000  1.883000  H  1  MOL  0.094118 
 33  H16  -0.473000  1.898000  2.131000  H  1  MOL  0.067267 
 34  H17  -2.016000  2.725000  1.861000  H  1  MOL  0.084095 
 35  H18  1.963000  -1.579000  1.026000  H  1  MOL  0.058870 
 36  H19  2.297000  -2.098000  -0.638000  H  1  MOL  0.058870 
 37  H20  0.579000  0.505000  1.279000  H  1  MOL  0.056222 
 38  H21  2.300000  0.657000  -0.353000  H  1  MOL  0.190413 
 39  H22  1.346000  -0.160000  -1.452000  H  1  MOL  0.190413 
@<TRIPOS>BOND
     1     1    12 1   
     2     1    13 am  
     3     1    16 2   
     4     2    11 1   
     5     2    15 1   
     6     2    17 1   
     7     3     4 1   
     8     3     5 1   
     9     3    18 1   
    10     3    19 1   
    11     4     6 1   
    12     4    20 1   
    13     4    21 1   
    14     5     7 1   
    15     5    22 1   
    16     5    23 1   
    17     6     8 1   
    18     6    24 1   
    19     6    25 1   
    20     7     8 1   
    21     7    26 1   
    22     7    27 1   
    23     8    12 1   
    24     8    28 1   
    25     9    13 1   
    26     9    29 1   
    27     9    30 1   
    28     9    31 1   
    29    10    13 1   
    30    10    32 1   
    31    10    33 1   
    32    10    34 1   
    33    11    14 1   
    34    11    35 1   
    35    11    36 1   
    36    12    14 1   
    37    12    37 1   
    38    14    38 1   
    39    14    39 1   
@<TRIPOS>SUBSTRUCTURE
     1 MOL         1 TEMP              0 ****  ****    0 ROOT
