@<TRIPOS>MOLECULE
MOL
   24    24     1     0     0
SMALL
No Charge or Current Charge


@<TRIPOS>ATOM
      1 C1          -1.5240    -1.6140     0.1160 C.ar       1 MOL       0.000000
      2 C2          -0.1330    -1.6110     0.0070 C.ar       1 MOL       0.000000
      3 C3          -0.1540     0.8090    -0.1940 C.ar       1 MOL       0.000000
      4 C4          -2.2440    -0.4130     0.0750 C.ar       1 MOL       0.000000
      5 C5           0.5430    -0.4040    -0.1410 C.ar       1 MOL       0.000000
      6 C6          -1.5350     0.8010    -0.0810 C.ar       1 MOL       0.000000
      7 C7           4.1160     1.0740     1.0160 C.3        1 MOL       0.000000
      8 C8          -4.3480    -1.5140     0.3200 C.3        1 MOL       0.000000
      9 N1           2.7920     0.4300     1.0750 N.3        1 MOL       0.000000
     10 O1           2.7610    -1.8080    -0.2860 O.2        1 MOL       0.000000
     11 O2           2.7000     0.4590    -1.4510 O.2        1 MOL       0.000000
     12 O3          -3.5870    -0.3190     0.1740 O.3        1 MOL       0.000000
     13 S1           2.3210    -0.4060    -0.3300 S.o2       1 MOL       0.000000
     14 Cl1         -2.4170     2.3090    -0.1380 Cl         1 MOL       0.000000
     15 H1          -2.0440    -2.5570     0.2300 H          1 MOL       0.000000
     16 H2           0.4260    -2.5390     0.0300 H          1 MOL       0.000000
     17 H3           0.3740     1.7470    -0.3200 H          1 MOL       0.000000
     18 H4           4.1340     1.7540     0.1630 H          1 MOL       0.000000
     19 H5           4.9480     0.3630     0.9240 H          1 MOL       0.000000
     20 H6           4.2390     1.6550     1.9340 H          1 MOL       0.000000
     21 H7          -5.3890    -1.1920     0.3740 H          1 MOL       0.000000
     22 H8          -4.0810    -2.0460     1.2410 H          1 MOL       0.000000
     23 H9          -4.2140    -2.1790    -0.5410 H          1 MOL       0.000000
     24 H10          2.7120    -0.2110     1.8630 H          1 MOL       0.000000
@<TRIPOS>BOND
     1     1     2 ar  
     2     1     4 ar  
     3     1    15 1   
     4     2     5 ar  
     5     2    16 1   
     6     3     5 ar  
     7     3     6 ar  
     8     3    17 1   
     9     4     6 ar  
    10     4    12 1   
    11     5    13 1   
    12     6    14 1   
    13     7     9 1   
    14     7    18 1   
    15     7    19 1   
    16     7    20 1   
    17     8    12 1   
    18     8    21 1   
    19     8    22 1   
    20     8    23 1   
    21     9    13 1   
    22     9    24 1   
    23    10    13 2   
    24    11    13 2   
@<TRIPOS>SUBSTRUCTURE
     1 MOL         1 TEMP              0 ****  ****    0 ROOT
