@<TRIPOS>MOLECULE
MOL
   24    24     1     0     0
SMALL
No Charge or Current Charge


@<TRIPOS>ATOM
 1  C1  -1.524000  -1.614000  0.116000  C.ar  1  MOL  -0.228993 
 2  C2  -0.133000  -1.611000  0.007000  C.ar  1  MOL  -0.146960 
 3  C3  -0.154000  0.809000  -0.194000  C.ar  1  MOL  0.004679 
 4  C4  -2.244000  -0.413000  0.075000  C.ar  1  MOL  0.405815 
 5  C5  0.543000  -0.404000  -0.141000  C.ar  1  MOL  -0.101013 
 6  C6  -1.535000  0.801000  -0.081000  C.ar  1  MOL  -0.119463 
 7  C7  4.116000  1.074000  1.016000  C.3  1  MOL  -0.006820 
 8  C8  -4.348000  -1.514000  0.320000  C.3  1  MOL  -0.020109 
 9  N1  2.792000  0.430000  1.075000  N.3  1  MOL  -0.603290 
 10  O1  2.761000  -1.808000  -0.286000  O.2  1  MOL  -0.477313 
 11  O2  2.700000  0.459000  -1.451000  O.2  1  MOL  -0.477313 
 12  O3  -3.587000  -0.319000  0.174000  O.3  1  MOL  -0.332102 
 13  S1  2.321000  -0.406000  -0.330000  S.o2  1  MOL  0.848246 
 14  Cl1  -2.417000  2.309000  -0.138000  Cl  1  MOL  -0.096036 
 15  H1  -2.044000  -2.557000  0.230000  H  1  MOL  0.137440 
 16  H2  0.426000  -2.539000  0.030000  H  1  MOL  0.191969 
 17  H3  0.374000  1.747000  -0.320000  H  1  MOL  0.153382 
 18  H4  4.134000  1.754000  0.163000  H  1  MOL  0.080980 
 19  H5  4.948000  0.363000  0.924000  H  1  MOL  0.080980 
 20  H6  4.239000  1.655000  1.934000  H  1  MOL  0.080980 
 21  H7  -5.389000  -1.192000  0.374000  H  1  MOL  0.085920 
 22  H8  -4.081000  -2.046000  1.241000  H  1  MOL  0.085920 
 23  H9  -4.214000  -2.179000  -0.541000  H  1  MOL  0.085920 
 24  H10  2.712000  -0.211000  1.863000  H  1  MOL  0.367180 
@<TRIPOS>BOND
     1     1     2 ar  
     2     1     4 ar  
     3     1    15 1   
     4     2     5 ar  
     5     2    16 1   
     6     3     5 ar  
     7     3     6 ar  
     8     3    17 1   
     9     4     6 ar  
    10     4    12 1   
    11     5    13 1   
    12     6    14 1   
    13     7     9 1   
    14     7    18 1   
    15     7    19 1   
    16     7    20 1   
    17     8    12 1   
    18     8    21 1   
    19     8    22 1   
    20     8    23 1   
    21     9    13 1   
    22     9    24 1   
    23    10    13 2   
    24    11    13 2   
@<TRIPOS>SUBSTRUCTURE
     1 MOL         1 TEMP              0 ****  ****    0 ROOT
