@<TRIPOS>MOLECULE
MOL
   18    17     1     0     0
SMALL
No Charge or Current Charge


@<TRIPOS>ATOM
 1  C1  -1.325000  0.054000  0.161000  C.2  1  MOL  0.510929 
 2  C2  -2.529000  0.071000  -0.772000  C.3  1  MOL  -0.313908 
 3  C3  2.095000  1.142000  -0.430000  C.3  1  MOL  -0.157319 
 4  C4  2.161000  -0.366000  -0.172000  C.3  1  MOL  0.171050 
 5  C5  0.926000  -0.926000  0.549000  C.3  1  MOL  -0.298619 
 6  N1  -0.308000  -0.784000  -0.211000  N.am  1  MOL  -0.353167 
 7  O1  -1.286000  0.744000  1.173000  O.2  1  MOL  -0.514977 
 8  H1  -3.417000  -0.221000  -0.204000  H  1  MOL  0.111818 
 9  H2  -2.689000  1.096000  -1.121000  H  1  MOL  0.116842 
 10  H3  -2.430000  -0.589000  -1.640000  H  1  MOL  0.089295 
 11  H4  1.240000  1.398000  -1.066000  H  1  MOL  0.038723 
 12  H5  1.985000  1.698000  0.508000  H  1  MOL  0.038723 
 13  H6  3.003000  1.496000  -0.931000  H  1  MOL  0.038723 
 14  H7  3.041000  -0.602000  0.442000  H  1  MOL  -0.005095 
 15  H8  2.302000  -0.902000  -1.122000  H  1  MOL  -0.005095 
 16  H9  1.082000  -1.987000  0.785000  H  1  MOL  0.137563 
 17  H10  0.758000  -0.396000  1.491000  H  1  MOL  0.137563 
 18  H11  -0.404000  -1.310000  -1.068000  H  1  MOL  0.256949 
@<TRIPOS>BOND
     1     1     2 1   
     2     1     6 am  
     3     1     7 2   
     4     2     8 1   
     5     2     9 1   
     6     2    10 1   
     7     3     4 1   
     8     3    11 1   
     9     3    12 1   
    10     3    13 1   
    11     4     5 1   
    12     4    14 1   
    13     4    15 1   
    14     5     6 1   
    15     5    16 1   
    16     5    17 1   
    17     6    18 1   
@<TRIPOS>SUBSTRUCTURE
     1 MOL         1 TEMP              0 ****  ****    0 ROOT
