@<TRIPOS>MOLECULE
MOL
   44    44     1     0     0
SMALL
No Charge or Current Charge


@<TRIPOS>ATOM
 1  C1  -3.475000  0.059000  0.116000  C.2  1  MOL  0.596329 
 2  C2  0.929000  -1.541000  -0.465000  C.2  1  MOL  0.636107 
 3  C3  3.185000  2.837000  -0.225000  C.3  1  MOL  -0.063087 
 4  C4  2.933000  2.285000  1.185000  C.3  1  MOL  -0.076352 
 5  C5  1.891000  2.858000  -1.051000  C.3  1  MOL  -0.076352 
 6  C6  2.268000  0.900000  1.142000  C.3  1  MOL  -0.136989 
 7  C7  1.228000  1.471000  -1.101000  C.3  1  MOL  -0.136989 
 8  C8  0.959000  0.934000  0.321000  C.3  1  MOL  0.056076 
 9  C9  -5.914000  0.404000  0.256000  C.3  1  MOL  -0.006198 
 10  C10  2.490000  -3.369000  -0.753000  C.3  1  MOL  -0.071473 
 11  C11  2.120000  -2.508000  1.527000  C.3  1  MOL  -0.089282 
 12  C12  -2.085000  0.735000  0.020000  C.3  1  MOL  0.681279 
 13  C13  0.227000  -0.433000  0.368000  C.3  1  MOL  0.560318 
 14  N1  -4.535000  0.877000  0.117000  N.am  1  MOL  -0.470020 
 15  N2  1.814000  -2.385000  0.103000  N.am  1  MOL  -0.344286 
 16  N3  -1.134000  -0.366000  -0.306000  N.4  1  MOL  -1.050143 
 17  O1  -3.510000  -1.169000  0.211000  O.2  1  MOL  -0.524049 
 18  O2  0.628000  -1.569000  -1.667000  O.2  1  MOL  -0.560519 
 19  H1  3.611000  3.844000  -0.165000  H  1  MOL  0.057868 
 20  H2  3.931000  2.211000  -0.735000  H  1  MOL  0.057868 
 21  H3  3.873000  2.218000  1.745000  H  1  MOL  0.052141 
 22  H4  2.288000  2.979000  1.742000  H  1  MOL  0.052141 
 23  H5  1.190000  3.583000  -0.613000  H  1  MOL  0.052141 
 24  H6  2.094000  3.199000  -2.073000  H  1  MOL  0.052141 
 25  H7  2.962000  0.180000  0.689000  H  1  MOL  0.050046 
 26  H8  2.065000  0.555000  2.164000  H  1  MOL  0.050046 
 27  H9  0.298000  1.533000  -1.684000  H  1  MOL  0.050046 
 28  H10  1.876000  0.771000  -1.642000  H  1  MOL  0.050046 
 29  H11  0.297000  1.651000  0.831000  H  1  MOL  0.008755 
 30  H12  -6.501000  0.691000  -0.621000  H  1  MOL  0.068972 
 31  H13  -6.370000  0.828000  1.155000  H  1  MOL  0.058547 
 32  H14  -5.892000  -0.683000  0.338000  H  1  MOL  0.062004 
 33  H15  3.570000  -3.312000  -0.585000  H  1  MOL  0.087465 
 34  H16  2.262000  -3.154000  -1.795000  H  1  MOL  0.084069 
 35  H17  2.145000  -4.379000  -0.503000  H  1  MOL  0.088028 
 36  H18  1.887000  -3.525000  1.862000  H  1  MOL  0.094118 
 37  H19  1.549000  -1.806000  2.130000  H  1  MOL  0.067267 
 38  H20  3.185000  -2.323000  1.700000  H  1  MOL  0.084095 
 39  H21  -1.821000  1.165000  0.989000  H  1  MOL  -0.084929 
 40  H22  -2.031000  1.517000  -0.739000  H  1  MOL  -0.084929 
 41  H23  0.033000  -0.717000  1.404000  H  1  MOL  -0.053673 
 42  H24  -4.385000  1.873000  0.015000  H  1  MOL  0.286695 
 43  H25  -1.696000  -1.221000  -0.082000  H  1  MOL  0.392331 
 44  H26  -0.912000  -0.450000  -1.316000  H  1  MOL  0.392331 
@<TRIPOS>BOND
     1     1    12 1   
     2     1    14 am  
     3     1    17 2   
     4     2    13 1   
     5     2    15 am  
     6     2    18 2   
     7     3     4 1   
     8     3     5 1   
     9     3    19 1   
    10     3    20 1   
    11     4     6 1   
    12     4    21 1   
    13     4    22 1   
    14     5     7 1   
    15     5    23 1   
    16     5    24 1   
    17     6     8 1   
    18     6    25 1   
    19     6    26 1   
    20     7     8 1   
    21     7    27 1   
    22     7    28 1   
    23     8    13 1   
    24     8    29 1   
    25     9    14 1   
    26     9    30 1   
    27     9    31 1   
    28     9    32 1   
    29    10    15 1   
    30    10    33 1   
    31    10    34 1   
    32    10    35 1   
    33    11    15 1   
    34    11    36 1   
    35    11    37 1   
    36    11    38 1   
    37    12    16 1   
    38    12    39 1   
    39    12    40 1   
    40    13    16 1   
    41    13    41 1   
    42    14    42 1   
    43    16    43 1   
    44    16    44 1   
@<TRIPOS>SUBSTRUCTURE
     1 MOL         1 TEMP              0 ****  ****    0 ROOT
