@<TRIPOS>MOLECULE
MOL
   25    25     1     0     0
SMALL
No Charge or Current Charge


@<TRIPOS>ATOM
 1  C1  2.360000  0.872000  0.648000  C.ar  1  MOL  -0.066588 
 2  C2  0.902000  -0.557000  -0.632000  C.ar  1  MOL  -0.096057 
 3  C3  1.390000  1.847000  0.568000  C.ar  1  MOL  -0.025494 
 4  C4  2.110000  -0.362000  0.035000  C.ar  1  MOL  0.024101 
 5  C5  -0.050000  0.454000  -0.688000  C.ar  1  MOL  0.112628 
 6  C6  -2.624000  -0.745000  0.383000  C.2  1  MOL  0.510929 
 7  C7  -3.542000  -1.839000  0.874000  C.3  1  MOL  -0.313908 
 8  C8  -0.796000  2.739000  -0.052000  C.3  1  MOL  -0.163636 
 9  C9  -1.348000  0.213000  -1.451000  C.3  1  MOL  0.416046 
 10  N1  0.214000  1.649000  -0.084000  N.pl3  1  MOL  -0.011476 
 11  N2  -2.096000  -0.893000  -0.879000  N.am  1  MOL  -0.353167 
 12  O1  -2.331000  0.244000  1.049000  O.2  1  MOL  -0.514977 
 13  Cl1  3.284000  -1.618000  0.098000  Cl  1  MOL  0.057719 
 14  H1  3.284000  1.068000  1.177000  H  1  MOL  0.163574 
 15  H2  0.684000  -1.505000  -1.109000  H  1  MOL  0.133835 
 16  H3  1.522000  2.817000  1.029000  H  1  MOL  0.215029 
 17  H4  -3.257000  -2.109000  1.894000  H  1  MOL  0.111818 
 18  H5  -4.566000  -1.450000  0.914000  H  1  MOL  0.116842 
 19  H6  -3.529000  -2.732000  0.244000  H  1  MOL  0.089295 
 20  H7  -0.981000  3.106000  -1.063000  H  1  MOL  0.127872 
 21  H8  -1.703000  2.336000  0.400000  H  1  MOL  0.127872 
 22  H9  -0.403000  3.552000  0.556000  H  1  MOL  0.127872 
 23  H10  -1.958000  1.117000  -1.486000  H  1  MOL  -0.023539 
 24  H11  -1.088000  -0.051000  -2.480000  H  1  MOL  -0.023539 
 25  H12  -2.433000  -1.622000  -1.493000  H  1  MOL  0.256949 
@<TRIPOS>BOND
     1     1     3 ar  
     2     1     4 ar  
     3     1    14 1   
     4     2     4 ar  
     5     2     5 ar  
     6     2    15 1   
     7     3    10 2   
     8     3    16 1   
     9     4    13 1   
    10     5     9 1   
    11     5    10 1   
    12     6     7 1   
    13     6    11 am  
    14     6    12 2   
    15     7    17 1   
    16     7    18 1   
    17     7    19 1   
    18     8    10 1   
    19     8    20 1   
    20     8    21 1   
    21     8    22 1   
    22     9    11 1   
    23     9    23 1   
    24     9    24 1   
    25    11    25 1   
@<TRIPOS>SUBSTRUCTURE
     1 MOL         1 TEMP              0 ****  ****    0 ROOT
