@<TRIPOS>MOLECULE
*****
 42 42 0 0 0
SMALL
GASTEIGER

@<TRIPOS>ATOM
      1 C           1.1225    0.9313    0.5801 C.3     1  UNL1        0.0029
      2 N           2.5496    0.6439    0.4995 N.am    1  UNL1        0.3063
      3 C           3.1262   -0.1058    1.6070 C.3     1  UNL1        0.0029
      4 C           3.2365    1.1200   -0.6176 C.2     1  UNL1        0.2337
      5 O           2.6258    1.6384   -1.5609 O.2     1  UNL1        0.2738
      6 C           4.7717    0.9750   -0.7121 C.3     1  UNL1        0.1048
      7 H           5.2029    1.1582    0.2788 H       1  UNL1        0.0573
      8 C           5.2357   -0.4257   -1.1724 C.3     1  UNL1        0.0246
      9 C           4.9732   -0.8652   -2.6473 C.3     1  UNL1        0.0391
     10 C           5.8360   -2.1022   -2.9861 C.3     1  UNL1        0.0501
     11 C           5.3840   -3.3412   -2.2148 C.3     1  UNL1        0.0528
     12 C           3.9216   -3.6592   -2.5120 C.3     1  UNL1        0.0530
     13 C           3.0100   -2.4573   -2.2697 C.3     1  UNL1        0.0528
     14 C           3.5131   -1.2077   -2.9893 C.3     1  UNL1        0.0501
     15 N           5.3787    1.9692   -1.6656 N.3     1  UNL1        0.1829
     16 S           5.3908    3.5888   -1.1686 S.O2    1  UNL1        0.0272
     17 C           6.2434    4.3313   -2.5467 C.3     1  UNL1        0.0705
     18 O           4.0356    4.0776   -1.1704 O.2     1  UNL1        0.1585
     19 O           6.2283    3.6880    0.0074 O.2     1  UNL1        0.1585
     20 H           0.6216    0.2456    1.2703 H       1  UNL1        0.0428
     21 H           0.6538    0.8351   -0.4029 H       1  UNL1        0.0428
     22 H           0.9947    1.9588    0.9368 H       1  UNL1        0.0428
     23 H           2.4167   -0.1715    2.4403 H       1  UNL1        0.0428
     24 H           4.0438    0.3605    1.9674 H       1  UNL1        0.0428
     25 H           3.3370   -1.1208    1.2596 H       1  UNL1        0.0428
     26 H           4.8425   -1.1752   -0.4818 H       1  UNL1        0.0288
     27 H           6.3276   -0.4392   -1.0375 H       1  UNL1        0.0288
     28 H           5.2971   -0.0634   -3.3218 H       1  UNL1        0.0301
     29 H           6.8938   -1.8982   -2.7864 H       1  UNL1        0.0268
     30 H           5.7604   -2.3097   -4.0626 H       1  UNL1        0.0268
     31 H           5.5175   -3.1883   -1.1378 H       1  UNL1        0.0265
     32 H           6.0126   -4.1964   -2.4852 H       1  UNL1        0.0265
     33 H           3.5920   -4.5036   -1.8971 H       1  UNL1        0.0265
     34 H           3.8322   -3.9740   -3.5594 H       1  UNL1        0.0265
     35 H           2.9356   -2.2605   -1.1948 H       1  UNL1        0.0265
     36 H           1.9973   -2.6947   -2.6157 H       1  UNL1        0.0265
     37 H           2.8435   -0.3716   -2.7917 H       1  UNL1        0.0268
     38 H           3.4407   -1.3817   -4.0725 H       1  UNL1        0.0268
     39 H           4.8833    1.9044   -2.5586 H       1  UNL1        0.1485
     40 H           5.7187    4.0662   -3.4682 H       1  UNL1        0.0479
     41 H           7.2738    3.9736   -2.5698 H       1  UNL1        0.0479
     42 H           6.2229    5.4156   -2.4186 H       1  UNL1        0.0479
@<TRIPOS>BOND
     1     1     2    1
     2     2     3    1
     3     2     4   am
     4     4     5    2
     5     4     6    1
     6     6     7    1
     7     6     8    1
     8     8     9    1
     9     9    10    1
    10    10    11    1
    11    11    12    1
    12    12    13    1
    13    13    14    1
    14     9    14    1
    15     6    15    1
    16    15    16    1
    17    16    17    1
    18    16    18    2
    19    16    19    2
    20     1    20    1
    21     1    21    1
    22     1    22    1
    23     3    23    1
    24     3    24    1
    25     3    25    1
    26     8    26    1
    27     8    27    1
    28     9    28    1
    29    10    29    1
    30    10    30    1
    31    11    31    1
    32    11    32    1
    33    12    33    1
    34    12    34    1
    35    13    35    1
    36    13    36    1
    37    14    37    1
    38    14    38    1
    39    15    39    1
    40    17    40    1
    41    17    41    1
    42    17    42    1
