@<TRIPOS>MOLECULE
*****
 25 25 0 0 0
SMALL
GASTEIGER

@<TRIPOS>ATOM
      1 C           2.5448   -2.2525   -2.1892 C.3     1  UNL1        0.0122
      2 C           2.8206   -1.8073   -0.7824 C.2     1  UNL1        0.2102
      3 O           1.9796   -1.8586    0.1099 O.2     1  UNL1        0.2761
      4 N           4.1322   -1.4618   -0.5459 N.am    1  UNL1        0.3112
      5 C           4.5764   -1.0303    0.7658 C.3     1  UNL1        0.0424
      6 C           5.0507   -2.1805    1.6236 C.ar    1  UNL1        0.0332
      7 C           5.9921   -1.9776    2.6348 C.ar    1  UNL1        0.0459
      8 C           6.4071   -3.0489    3.4215 C.ar    1  UNL1        0.0024
      9 C           5.8924   -4.3172    3.1773 C.ar    1  UNL1        0.1710
     10 N           4.9802   -4.5031    2.2011 N.ar    1  UNL1        0.2062
     11 C           4.4773   -5.8483    1.8797 C.3     1  UNL1        0.1404
     12 C           4.5284   -3.4637    1.4684 C.ar    1  UNL1        0.1756
     13 H           1.4875   -2.5159   -2.2859 H       1  UNL1        0.0322
     14 H           3.1479   -3.1369   -2.4152 H       1  UNL1        0.0322
     15 H           2.7782   -1.4502   -2.8923 H       1  UNL1        0.0322
     16 H           4.8033   -1.4980   -1.3052 H       1  UNL1        0.1490
     17 H           3.7662   -0.5006    1.2792 H       1  UNL1        0.0513
     18 H           5.3993   -0.3272    0.5955 H       1  UNL1        0.0513
     19 H           6.4065   -0.9859    2.8197 H       1  UNL1        0.0625
     20 H           7.1357   -2.8969    4.2154 H       1  UNL1        0.0677
     21 H           6.2045   -5.1837    3.7522 H       1  UNL1        0.1376
     22 H           4.9753   -6.5950    2.5004 H       1  UNL1        0.0993
     23 H           4.7019   -6.0368    0.8248 H       1  UNL1        0.0993
     24 H           3.3987   -5.8576    2.0540 H       1  UNL1        0.0993
     25 H           3.7567   -3.7000    0.7446 H       1  UNL1        0.1379
@<TRIPOS>BOND
     1     1     2    1
     2     2     3    2
     3     2     4   am
     4     4     5    1
     5     5     6    1
     6     6     7   ar
     7     7     8   ar
     8     8     9   ar
     9     9    10   ar
    10    10    11    1
    11    10    12   ar
    12     6    12   ar
    13     1    13    1
    14     1    14    1
    15     1    15    1
    16     4    16    1
    17     5    17    1
    18     5    18    1
    19     7    19    1
    20     8    20    1
    21     9    21    1
    22    11    22    1
    23    11    23    1
    24    11    24    1
    25    12    25    1
