@<TRIPOS>MOLECULE
MOL
   23    23     1     0     0
SMALL
No Charge or Current Charge


@<TRIPOS>ATOM
 1  N1  -2.446000  -1.036000  0.015000  N.3  1  MOL  -0.776357 
 2  C1  -1.636000  0.039000  -0.031000  C.cat  1  MOL  0.554216 
 3  N2  -2.178000  1.202000  -0.445000  N.3  1  MOL  -0.782035 
 4  H1  -1.611000  1.954000  -0.805000  H  1  MOL  0.421171 
 5  H2  -3.179000  1.342000  -0.427000  H  1  MOL  0.421171 
 6  N3  -0.352000  -0.045000  0.317000  N.3  1  MOL  -0.114583 
 7  C2  0.396000  -1.326000  0.352000  C.3  1  MOL  -0.004627 
 8  C3  1.655000  -1.229000  -0.524000  C.3  1  MOL  -0.002398 
 9  C4  2.525000  -0.020000  -0.154000  C.3  1  MOL  -0.028207 
 10  C5  1.699000  1.274000  -0.177000  C.3  1  MOL  -0.002398 
 11  C6  0.462000  1.132000  0.714000  C.3  1  MOL  -0.004627 
 12  H3  -3.318000  -1.050000  -0.496000  H  1  MOL  0.419645 
 13  H4  -2.238000  -1.832000  0.600000  H  1  MOL  0.419645 
 14  H5  -0.247000  -2.129000  -0.008000  H  1  MOL  0.066075 
 15  H6  0.660000  -1.535000  1.396000  H  1  MOL  0.066075 
 16  H7  1.347000  -1.164000  -1.575000  H  1  MOL  0.031441 
 17  H8  2.217000  -2.163000  -0.412000  H  1  MOL  0.031441 
 18  H9  3.370000  0.057000  -0.845000  H  1  MOL  0.044660 
 19  H10  2.950000  -0.163000  0.849000  H  1  MOL  0.044660 
 20  H11  1.390000  1.509000  -1.205000  H  1  MOL  0.031441 
 21  H12  2.291000  2.122000  0.183000  H  1  MOL  0.031441 
 22  H13  -0.164000  2.025000  0.712000  H  1  MOL  0.066075 
 23  H14  0.767000  0.960000  1.754000  H  1  MOL  0.066075 
@<TRIPOS>BOND
     1     1     2 2   
     2     1    12 1   
     3     1    13 1   
     4     2     3 1   
     5     2     6 1   
     6     3     4 1   
     7     3     5 1   
     8     6     7 1   
     9     6    11 1   
    10     7     8 1   
    11     7    14 1   
    12     7    15 1   
    13     8     9 1   
    14     8    16 1   
    15     8    17 1   
    16     9    10 1   
    17     9    18 1   
    18     9    19 1   
    19    10    11 1   
    20    10    20 1   
    21    10    21 1   
    22    11    22 1   
    23    11    23 1   
@<TRIPOS>SUBSTRUCTURE
     1 MOL         1 TEMP              0 ****  ****    0 ROOT
