@<TRIPOS>MOLECULE
MOL
   23    23     1     0     0
SMALL
No Charge or Current Charge


@<TRIPOS>ATOM
      1 N1          -2.4460    -1.0360     0.0150 N.3        1 MOL       0.000000
      2 C1          -1.6360     0.0390    -0.0310 C.cat      1 MOL       0.000000
      3 N2          -2.1780     1.2020    -0.4450 N.3        1 MOL       0.000000
      4 H1          -1.6110     1.9540    -0.8050 H          1 MOL       0.000000
      5 H2          -3.1790     1.3420    -0.4270 H          1 MOL       0.000000
      6 N3          -0.3520    -0.0450     0.3170 N.3        1 MOL       0.000000
      7 C2           0.3960    -1.3260     0.3520 C.3        1 MOL       0.000000
      8 C3           1.6550    -1.2290    -0.5240 C.3        1 MOL       0.000000
      9 C4           2.5250    -0.0200    -0.1540 C.3        1 MOL       0.000000
     10 C5           1.6990     1.2740    -0.1770 C.3        1 MOL       0.000000
     11 C6           0.4620     1.1320     0.7140 C.3        1 MOL       0.000000
     12 H3          -3.3180    -1.0500    -0.4960 H          1 MOL       0.000000
     13 H4          -2.2380    -1.8320     0.6000 H          1 MOL       0.000000
     14 H5          -0.2470    -2.1290    -0.0080 H          1 MOL       0.000000
     15 H6           0.6600    -1.5350     1.3960 H          1 MOL       0.000000
     16 H7           1.3470    -1.1640    -1.5750 H          1 MOL       0.000000
     17 H8           2.2170    -2.1630    -0.4120 H          1 MOL       0.000000
     18 H9           3.3700     0.0570    -0.8450 H          1 MOL       0.000000
     19 H10          2.9500    -0.1630     0.8490 H          1 MOL       0.000000
     20 H11          1.3900     1.5090    -1.2050 H          1 MOL       0.000000
     21 H12          2.2910     2.1220     0.1830 H          1 MOL       0.000000
     22 H13         -0.1640     2.0250     0.7120 H          1 MOL       0.000000
     23 H14          0.7670     0.9600     1.7540 H          1 MOL       0.000000
@<TRIPOS>BOND
     1     1     2 2   
     2     1    12 1   
     3     1    13 1   
     4     2     3 1   
     5     2     6 1   
     6     3     4 1   
     7     3     5 1   
     8     6     7 1   
     9     6    11 1   
    10     7     8 1   
    11     7    14 1   
    12     7    15 1   
    13     8     9 1   
    14     8    16 1   
    15     8    17 1   
    16     9    10 1   
    17     9    18 1   
    18     9    19 1   
    19    10    11 1   
    20    10    20 1   
    21    10    21 1   
    22    11    22 1   
    23    11    23 1   
@<TRIPOS>SUBSTRUCTURE
     1 MOL         1 TEMP              0 ****  ****    0 ROOT
