@<TRIPOS>MOLECULE
*****
 23 23 0 0 0
SMALL
GASTEIGER

@<TRIPOS>ATOM
      1 C           3.0640   -2.1971   -2.0485 C.3     1  UNL1        0.0122
      2 C           3.1175   -1.3778   -0.7883 C.2     1  UNL1        0.2102
      3 O           2.1309   -0.8106   -0.3326 O.2     1  UNL1        0.2761
      4 N           4.3650   -1.3392   -0.2133 N.am    1  UNL1        0.3114
      5 C           4.6063   -0.6909    1.0592 C.3     1  UNL1        0.0369
      6 C           5.0770   -1.6580    2.1201 C.ar    1  UNL1        0.0269
      7 C           5.9008   -1.2051    3.1632 C.ar    1  UNL1        0.0569
      8 C           6.3311   -2.0810    4.1646 C.ar    1  UNL1        0.0580
      9 C           5.9539   -3.4231    4.1321 C.ar    1  UNL1        0.0202
     10 C           5.1276   -3.8715    3.1089 C.ar    1  UNL1        0.1172
     11 O           4.7464   -5.1776    3.0201 O.3     1  UNL1        0.5068
     12 C           4.6673   -2.9998    2.1282 C.ar    1  UNL1        0.0155
     13 H           2.0496   -2.1717   -2.4569 H       1  UNL1        0.0322
     14 H           3.3277   -3.2355   -1.8289 H       1  UNL1        0.0322
     15 H           3.7530   -1.7865   -2.7912 H       1  UNL1        0.0322
     16 H           5.1172   -1.8837   -0.6137 H       1  UNL1        0.1490
     17 H           3.7109   -0.1693    1.4118 H       1  UNL1        0.0512
     18 H           5.3884    0.0531    0.8692 H       1  UNL1        0.0512
     19 H           6.2107   -0.1625    3.2058 H       1  UNL1        0.0621
     20 H           6.9622   -1.7146    4.9707 H       1  UNL1        0.0619
     21 H           6.3015   -4.0944    4.9105 H       1  UNL1        0.0654
     22 H           5.2264   -5.6853    3.6942 H       1  UNL1        0.2921
     23 H           3.9904   -3.3797    1.3675 H       1  UNL1        0.0657
@<TRIPOS>BOND
     1     1     2    1
     2     2     3    2
     3     2     4   am
     4     4     5    1
     5     5     6    1
     6     6     7   ar
     7     7     8   ar
     8     8     9   ar
     9     9    10   ar
    10    10    11    1
    11    10    12   ar
    12     6    12   ar
    13     1    13    1
    14     1    14    1
    15     1    15    1
    16     4    16    1
    17     5    17    1
    18     5    18    1
    19     7    19    1
    20     8    20    1
    21     9    21    1
    22    11    22    1
    23    12    23    1
