@<TRIPOS>MOLECULE
MOL
   41    41     1     0     0
SMALL
No Charge or Current Charge


@<TRIPOS>ATOM
      1 C1          -3.8210     0.3200     0.2110 C.2        1 MOL       0.000000
      2 C2           0.4590    -1.5500    -0.4670 C.2        1 MOL       0.000000
      3 C3           2.9950     2.6690    -0.2490 C.3        1 MOL       0.000000
      4 C4           2.7310     2.1260     1.1620 C.3        1 MOL       0.000000
      5 C5           1.6920     2.7830    -1.0510 C.3        1 MOL       0.000000
      6 C6           1.9730     0.7890     1.1230 C.3        1 MOL       0.000000
      7 C7           0.9350     1.4440    -1.0990 C.3        1 MOL       0.000000
      8 C8           0.6560     0.9160     0.3250 C.3        1 MOL       0.000000
      9 C9           1.8960    -3.4720    -0.7790 C.3        1 MOL       0.000000
     10 C10          1.6090    -2.5960     1.5080 C.3        1 MOL       0.000000
     11 C11         -2.4000     0.9110     0.0490 C.3        1 MOL       0.000000
     12 C12         -0.1620    -0.4020     0.3760 C.3        1 MOL       0.000000
     13 N1          -4.8300     1.2010     0.2860 N.am       1 MOL       0.000000
     14 N2           1.2920    -2.4510     0.0880 N.am       1 MOL       0.000000
     15 N3          -1.5240    -0.2460    -0.2850 N.4        1 MOL       0.000000
     16 O1          -3.9390    -0.8990     0.2900 O.2        1 MOL       0.000000
     17 O2           0.1420    -1.5530    -1.6660 O.2        1 MOL       0.000000
     18 H1           3.4890     3.6450    -0.1910 H          1 MOL       0.000000
     19 H2           3.6880     1.9980    -0.7750 H          1 MOL       0.000000
     20 H3           3.6730     1.9920     1.7050 H          1 MOL       0.000000
     21 H4           2.1440     2.8580     1.7340 H          1 MOL       0.000000
     22 H5           1.0480     3.5510    -0.5960 H          1 MOL       0.000000
     23 H6           1.8980     3.1170    -2.0740 H          1 MOL       0.000000
     24 H7           2.6100     0.0270     0.6540 H          1 MOL       0.000000
     25 H8           1.7650     0.4510     2.1460 H          1 MOL       0.000000
     26 H9           0.0020     1.5750    -1.6640 H          1 MOL       0.000000
     27 H10          1.5250     0.7070    -1.6560 H          1 MOL       0.000000
     28 H11          0.0520     1.6710     0.8520 H          1 MOL       0.000000
     29 H12          2.9800    -3.4790    -0.6280 H          1 MOL       0.000000
     30 H13          1.6650    -3.2430    -1.8170 H          1 MOL       0.000000
     31 H14          1.4970    -4.4600    -0.5230 H          1 MOL       0.000000
     32 H15          1.3240    -3.6010     1.8410 H          1 MOL       0.000000
     33 H16          1.0840    -1.8670     2.1210 H          1 MOL       0.000000
     34 H17          2.6840    -2.4710     1.6680 H          1 MOL       0.000000
     35 H18         -2.0800     1.3530     0.9950 H          1 MOL       0.000000
     36 H19         -2.3370     1.6710    -0.7320 H          1 MOL       0.000000
     37 H20         -0.3640    -0.6760     1.4130 H          1 MOL       0.000000
     38 H21         -4.7020     2.1990     0.1920 H          1 MOL       0.000000
     39 H22         -5.7710     0.8500     0.4210 H          1 MOL       0.000000
     40 H23         -2.1310    -1.0680    -0.0580 H          1 MOL       0.000000
     41 H24         -1.3130    -0.3440    -1.2970 H          1 MOL       0.000000
@<TRIPOS>BOND
     1     1    11 1   
     2     1    13 am  
     3     1    16 2   
     4     2    12 1   
     5     2    14 am  
     6     2    17 2   
     7     3     4 1   
     8     3     5 1   
     9     3    18 1   
    10     3    19 1   
    11     4     6 1   
    12     4    20 1   
    13     4    21 1   
    14     5     7 1   
    15     5    22 1   
    16     5    23 1   
    17     6     8 1   
    18     6    24 1   
    19     6    25 1   
    20     7     8 1   
    21     7    26 1   
    22     7    27 1   
    23     8    12 1   
    24     8    28 1   
    25     9    14 1   
    26     9    29 1   
    27     9    30 1   
    28     9    31 1   
    29    10    14 1   
    30    10    32 1   
    31    10    33 1   
    32    10    34 1   
    33    11    15 1   
    34    11    35 1   
    35    11    36 1   
    36    12    15 1   
    37    12    37 1   
    38    13    38 1   
    39    13    39 1   
    40    15    40 1   
    41    15    41 1   
@<TRIPOS>SUBSTRUCTURE
     1 MOL         1 TEMP              0 ****  ****    0 ROOT
