@<TRIPOS>MOLECULE
MOL
   41    41     1     0     0
SMALL
No Charge or Current Charge


@<TRIPOS>ATOM
 1  C1  -3.821000  0.320000  0.211000  C.2  1  MOL  0.815531 
 2  C2  0.459000  -1.550000  -0.467000  C.2  1  MOL  0.636107 
 3  C3  2.995000  2.669000  -0.249000  C.3  1  MOL  -0.032958 
 4  C4  2.731000  2.126000  1.162000  C.3  1  MOL  -0.066699 
 5  C5  1.692000  2.783000  -1.051000  C.3  1  MOL  -0.066699 
 6  C6  1.973000  0.789000  1.123000  C.3  1  MOL  -0.086530 
 7  C7  0.935000  1.444000  -1.099000  C.3  1  MOL  -0.086530 
 8  C8  0.656000  0.916000  0.325000  C.3  1  MOL  0.086537 
 9  C9  1.896000  -3.472000  -0.779000  C.3  1  MOL  -0.071473 
 10  C10  1.609000  -2.596000  1.508000  C.3  1  MOL  -0.089282 
 11  C11  -2.400000  0.911000  0.049000  C.3  1  MOL  -0.053960 
 12  C12  -0.162000  -0.402000  0.376000  C.3  1  MOL  0.343868 
 13  N1  -4.830000  1.201000  0.286000  N.am  1  MOL  -1.028738 
 14  N2  1.292000  -2.451000  0.088000  N.am  1  MOL  -0.344286 
 15  N3  -1.524000  -0.246000  -0.285000  N.4  1  MOL  -0.479685 
 16  O1  -3.939000  -0.899000  0.290000  O.2  1  MOL  -0.576248 
 17  O2  0.142000  -1.553000  -1.666000  O.2  1  MOL  -0.560519 
 18  H1  3.489000  3.645000  -0.191000  H  1  MOL  0.043989 
 19  H2  3.688000  1.998000  -0.775000  H  1  MOL  0.043989 
 20  H3  3.673000  1.992000  1.705000  H  1  MOL  0.041585 
 21  H4  2.144000  2.858000  1.734000  H  1  MOL  0.041585 
 22  H5  1.048000  3.551000  -0.596000  H  1  MOL  0.041585 
 23  H6  1.898000  3.117000  -2.074000  H  1  MOL  0.041585 
 24  H7  2.610000  0.027000  0.654000  H  1  MOL  0.031856 
 25  H8  1.765000  0.451000  2.146000  H  1  MOL  0.031856 
 26  H9  0.002000  1.575000  -1.664000  H  1  MOL  0.031856 
 27  H10  1.525000  0.707000  -1.656000  H  1  MOL  0.031856 
 28  H11  0.052000  1.671000  0.852000  H  1  MOL  0.000399 
 29  H12  2.980000  -3.479000  -0.628000  H  1  MOL  0.087465 
 30  H13  1.665000  -3.243000  -1.817000  H  1  MOL  0.084069 
 31  H14  1.497000  -4.460000  -0.523000  H  1  MOL  0.088028 
 32  H15  1.324000  -3.601000  1.841000  H  1  MOL  0.094118 
 33  H16  1.084000  -1.867000  2.121000  H  1  MOL  0.067267 
 34  H17  2.684000  -2.471000  1.668000  H  1  MOL  0.084095 
 35  H18  -2.080000  1.353000  0.995000  H  1  MOL  0.101764 
 36  H19  -2.337000  1.671000  -0.732000  H  1  MOL  0.101764 
 37  H20  -0.364000  -0.676000  1.413000  H  1  MOL  -0.011615 
 38  H21  -4.702000  2.199000  0.192000  H  1  MOL  0.473038 
 39  H22  -5.771000  0.850000  0.421000  H  1  MOL  0.473038 
 40  H23  -2.131000  -1.068000  -0.058000  H  1  MOL  0.318198 
 41  H24  -1.313000  -0.344000  -1.297000  H  1  MOL  0.318198 
@<TRIPOS>BOND
     1     1    11 1   
     2     1    13 am  
     3     1    16 2   
     4     2    12 1   
     5     2    14 am  
     6     2    17 2   
     7     3     4 1   
     8     3     5 1   
     9     3    18 1   
    10     3    19 1   
    11     4     6 1   
    12     4    20 1   
    13     4    21 1   
    14     5     7 1   
    15     5    22 1   
    16     5    23 1   
    17     6     8 1   
    18     6    24 1   
    19     6    25 1   
    20     7     8 1   
    21     7    26 1   
    22     7    27 1   
    23     8    12 1   
    24     8    28 1   
    25     9    14 1   
    26     9    29 1   
    27     9    30 1   
    28     9    31 1   
    29    10    14 1   
    30    10    32 1   
    31    10    33 1   
    32    10    34 1   
    33    11    15 1   
    34    11    35 1   
    35    11    36 1   
    36    12    15 1   
    37    12    37 1   
    38    13    38 1   
    39    13    39 1   
    40    15    40 1   
    41    15    41 1   
@<TRIPOS>SUBSTRUCTURE
     1 MOL         1 TEMP              0 ****  ****    0 ROOT
