@<TRIPOS>MOLECULE
MOL
   39    39     1     0     0
SMALL
No Charge or Current Charge


@<TRIPOS>ATOM
      1 C1          -0.0680     1.5180    -0.6210 C.2        1 MOL       0.000000
      2 C2           3.3570    -1.2670     0.2860 C.2        1 MOL       0.000000
      3 C3          -3.6070    -1.7640     0.1710 C.3        1 MOL       0.000000
      4 C4          -2.9060    -1.3430     1.4700 C.3        1 MOL       0.000000
      5 C5          -2.5930    -2.2700    -0.8660 C.3        1 MOL       0.000000
      6 C6          -1.7990    -0.3090     1.2050 C.3        1 MOL       0.000000
      7 C7          -1.4930    -1.2310    -1.1350 C.3        1 MOL       0.000000
      8 C8          -0.7790    -0.8210     0.1680 C.3        1 MOL       0.000000
      9 C9          -0.7150     3.8530    -0.4310 C.3        1 MOL       0.000000
     10 C10          0.0330     2.7200     1.6060 C.3        1 MOL       0.000000
     11 C11          2.1540    -1.5230    -0.6420 C.3        1 MOL       0.000000
     12 C12          0.4080     0.1750    -0.0310 C.3        1 MOL       0.000000
     13 N1          -0.2500     2.6120     0.1820 N.am       1 MOL       0.000000
     14 N2           1.4680    -0.2720    -0.9530 N.3        1 MOL       0.000000
     15 O1           3.9110    -2.1380     0.9120 O.2        1 MOL       0.000000
     16 O2          -0.2830     1.5620    -1.8350 O.2        1 MOL       0.000000
     17 O3           3.7390     0.0220     0.3040 O.3        1 MOL       0.000000
     18 H1          -4.3590    -2.5360     0.3780 H          1 MOL       0.000000
     19 H2          -4.1490    -0.9020    -0.2450 H          1 MOL       0.000000
     20 H3          -3.6340    -0.9340     2.1830 H          1 MOL       0.000000
     21 H4          -2.4650    -2.2290     1.9480 H          1 MOL       0.000000
     22 H5          -2.1360    -3.2020    -0.5000 H          1 MOL       0.000000
     23 H6          -3.1030    -2.5220    -1.8050 H          1 MOL       0.000000
     24 H7          -2.2570     0.6220     0.8410 H          1 MOL       0.000000
     25 H8          -1.2900    -0.0640     2.1470 H          1 MOL       0.000000
     26 H9          -0.7680    -1.6390    -1.8520 H          1 MOL       0.000000
     27 H10         -1.9270    -0.3440    -1.6110 H          1 MOL       0.000000
     28 H11         -0.3330    -1.7320     0.5960 H          1 MOL       0.000000
     29 H12         -1.6310     4.1970     0.0650 H          1 MOL       0.000000
     30 H13         -0.9120     3.6690    -1.4850 H          1 MOL       0.000000
     31 H14          0.0480     4.6360    -0.3310 H          1 MOL       0.000000
     32 H15          0.8010     3.4850     1.7820 H          1 MOL       0.000000
     33 H16          0.3830     1.7810     2.0250 H          1 MOL       0.000000
     34 H17         -0.8730     3.0190     2.1490 H          1 MOL       0.000000
     35 H18          1.5340    -2.3020    -0.1840 H          1 MOL       0.000000
     36 H19          2.5520    -1.9420    -1.5730 H          1 MOL       0.000000
     37 H20          0.8870     0.3070     0.9440 H          1 MOL       0.000000
     38 H21          3.0910     0.4730    -0.2980 H          1 MOL       0.000000
     39 H22          1.1200    -0.2180    -1.9050 H          1 MOL       0.000000
@<TRIPOS>BOND
     1     1    12 1   
     2     1    13 am  
     3     1    16 2   
     4     2    11 1   
     5     2    15 2   
     6     2    17 1   
     7     3     4 1   
     8     3     5 1   
     9     3    18 1   
    10     3    19 1   
    11     4     6 1   
    12     4    20 1   
    13     4    21 1   
    14     5     7 1   
    15     5    22 1   
    16     5    23 1   
    17     6     8 1   
    18     6    24 1   
    19     6    25 1   
    20     7     8 1   
    21     7    26 1   
    22     7    27 1   
    23     8    12 1   
    24     8    28 1   
    25     9    13 1   
    26     9    29 1   
    27     9    30 1   
    28     9    31 1   
    29    10    13 1   
    30    10    32 1   
    31    10    33 1   
    32    10    34 1   
    33    11    14 1   
    34    11    35 1   
    35    11    36 1   
    36    12    14 1   
    37    12    37 1   
    38    14    39 1   
    39    17    38 1   
@<TRIPOS>SUBSTRUCTURE
     1 MOL         1 TEMP              0 ****  ****    0 ROOT
