@<TRIPOS>MOLECULE
MOL
   28    27     1     0     0
SMALL
rc


@<TRIPOS>ATOM
      1 C1         -1.4250   -0.4850   -0.7990 C.2       1 MOL      0.385641
      2 C2          1.2410    0.6440   -0.0350 C.2       1 MOL      0.426454
      3 C3         -2.6340   -1.4000   -0.9670 C.3       1 MOL      0.001206
      4 C4         -0.5340    2.4380    0.0350 C.3       1 MOL     -0.010967
      5 C5          2.9850   -1.0230   -0.3390 C.3       1 MOL     -0.028716
      6 C6          1.1860   -1.5210    1.2570 C.3       1 MOL     -0.028716
      7 C7         -2.1480    0.0130    1.5430 C.3       1 MOL     -0.024743
      8 C8         -0.1180    1.0690    0.5830 C.3       1 MOL      0.006396
      9 N1          1.7770   -0.5680    0.3360 N.am      1 MOL     -0.237111
     10 N2         -1.1990    0.0720    0.4410 N.am      1 MOL     -0.203281
     11 O1         -0.6650   -0.2730   -1.7380 O.2       1 MOL     -0.473836
     12 O2          1.8480    1.4270   -0.7530 O.2       1 MOL     -0.477986
     13 H1         -3.5770   -0.8590   -0.8280 H         1 MOL      0.028996
     14 H2         -2.5990   -1.7890   -1.9850 H         1 MOL      0.028996
     15 H3         -2.6220   -2.2400   -0.2640 H         1 MOL      0.028996
     16 H4         -0.6610    2.3810   -1.0470 H         1 MOL      0.025767
     17 H5         -1.4730    2.7610    0.4990 H         1 MOL      0.025767
     18 H6          0.2370    3.1830    0.2450 H         1 MOL      0.025767
     19 H7          3.7770   -1.2340    0.3920 H         1 MOL      0.049090
     20 H8          3.3160   -0.2390   -1.0170 H         1 MOL      0.049090
     21 H9          2.7840   -1.9410   -0.9090 H         1 MOL      0.049090
     22 H10         0.6350   -2.3180    0.7370 H         1 MOL      0.049090
     23 H11         0.5080   -1.0330    1.9570 H         1 MOL      0.049090
     24 H12         1.9870   -1.9890    1.8410 H         1 MOL      0.049090
     25 H13        -1.6230   -0.2040    2.4830 H         1 MOL      0.047191
     26 H14        -2.8820   -0.7760    1.3830 H         1 MOL      0.047191
     27 H15        -2.6870    0.9630    1.6700 H         1 MOL      0.047191
     28 H16         0.0480    1.1600    1.6660 H         1 MOL      0.065253
@<TRIPOS>BOND
     1    1    3 1   
     2    1   10 am  
     3    1   11 2   
     4    2    8 1   
     5    2    9 am  
     6    2   12 2   
     7    3   13 1   
     8    3   14 1   
     9    3   15 1   
    10    4    8 1   
    11    4   16 1   
    12    4   17 1   
    13    4   18 1   
    14    5    9 1   
    15    5   19 1   
    16    5   20 1   
    17    5   21 1   
    18    6    9 1   
    19    6   22 1   
    20    6   23 1   
    21    6   24 1   
    22    7   10 1   
    23    7   25 1   
    24    7   26 1   
    25    7   27 1   
    26    8   10 1   
    27    8   28 1   
@<TRIPOS>SUBSTRUCTURE
     1 MOL         1 TEMP              0 ****  ****    0 ROOT
