@<TRIPOS>MOLECULE
MOL
   23    23     1     0     0
SMALL
No Charge or Current Charge


@<TRIPOS>ATOM
      1 C1           0.5830     0.7330    -0.5690 C.ar       1 MOL       0.000000
      2 C2           1.8420     1.2300    -0.2780 C.ar       1 MOL       0.000000
      3 C3           1.3700    -1.4270     0.0540 C.ar       1 MOL       0.000000
      4 C4           0.3160    -0.6370    -0.4000 C.ar       1 MOL       0.000000
      5 C5           2.8330     0.3330     0.1780 C.ar       1 MOL       0.000000
      6 C6          -2.8860     0.2640     0.0530 C.2        1 MOL       0.000000
      7 C7          -3.8480     0.5990     1.1830 C.3        1 MOL       0.000000
      8 C8          -1.0480    -1.2220    -0.6910 C.3        1 MOL       0.000000
      9 N1           2.5990    -0.9770     0.3350 N.ar       1 MOL       0.000000
     10 N2           4.0950     0.7790     0.5350 N.3        1 MOL       0.000000
     11 N3          -2.0850    -0.8240     0.2630 N.am       1 MOL       0.000000
     12 O1          -2.8490     0.9260    -0.9800 O.2        1 MOL       0.000000
     13 H1          -0.2030     1.3930    -0.9270 H          1 MOL       0.000000
     14 H2           2.0680     2.2860    -0.3940 H          1 MOL       0.000000
     15 H3           1.2240    -2.4990     0.1930 H          1 MOL       0.000000
     16 H4          -3.5970     1.5880     1.5810 H          1 MOL       0.000000
     17 H5          -4.8600     0.6590     0.7740 H          1 MOL       0.000000
     18 H6          -3.8370    -0.1260     2.0030 H          1 MOL       0.000000
     19 H7          -1.4080    -0.8960    -1.6710 H          1 MOL       0.000000
     20 H8          -0.9930    -2.3160    -0.6990 H          1 MOL       0.000000
     21 H9           4.4330     1.6100     0.0700 H          1 MOL       0.000000
     22 H10          4.7800     0.0370     0.6060 H          1 MOL       0.000000
     23 H11         -2.0520    -1.2290     1.1890 H          1 MOL       0.000000
@<TRIPOS>BOND
     1     1     2 ar  
     2     1     4 ar  
     3     1    13 1   
     4     2     5 ar  
     5     2    14 1   
     6     3     4 ar  
     7     3     9 ar  
     8     3    15 1   
     9     4     8 1   
    10     5     9 ar  
    11     5    10 1   
    12     6     7 1   
    13     6    11 am  
    14     6    12 2   
    15     7    16 1   
    16     7    17 1   
    17     7    18 1   
    18     8    11 1   
    19     8    19 1   
    20     8    20 1   
    21    10    21 1   
    22    10    22 1   
    23    11    23 1   
@<TRIPOS>SUBSTRUCTURE
     1 MOL         1 TEMP              0 ****  ****    0 ROOT
