@<TRIPOS>MOLECULE
*****
 41 41 0 0 0
SMALL
GASTEIGER

@<TRIPOS>ATOM
      1 C           5.0455   -3.4606    0.2411 C.3     1  UNL1        0.0030
      2 N           4.3885   -2.2276    0.6807 N.am    1  UNL1        0.3030
      3 C           2.9339   -2.3045    0.8006 C.3     1  UNL1        0.0030
      4 C           5.1989   -1.1083    0.8402 C.2     1  UNL1        0.2636
      5 O           6.4053   -1.1424    0.5678 O.2     1  UNL1        0.2694
      6 C           4.6248    0.2725    1.2800 C.3     1  UNL1        0.0584
      7 H           3.5349    0.2711    1.2900 H       1  UNL1        0.0952
      8 N           5.0367    1.3676    0.2558 N.4     1  UNL1        0.2425
      9 H           4.6840    2.2878    0.5336 H       1  UNL1        0.2026
     10 H           6.0682    1.4293    0.2944 H       1  UNL1        0.2026
     11 C           4.6901    1.1404   -1.1886 C.3     1  UNL1        0.0447
     12 C           5.0152    2.3537   -2.0720 C.2     1  UNL1        0.2556
     13 N           4.5119    3.5732   -1.7114 N.am    1  UNL1        0.3249
     14 O           5.7257    2.2619   -3.0691 O.2     1  UNL1        0.2702
     15 C           5.2595    0.7516    2.6348 C.3     1  UNL1        0.0107
     16 C           4.7259    2.1181    3.1230 C.3     1  UNL1        0.0446
     17 C           3.2500    2.0347    3.4940 C.3     1  UNL1        0.0526
     18 C           3.0344    1.0189    4.6112 C.3     1  UNL1        0.0530
     19 C           3.6889   -0.3364    4.3390 C.3     1  UNL1        0.0526
     20 C           5.1146   -0.2359    3.8045 C.3     1  UNL1        0.0446
     21 H           4.3234   -4.2682    0.0802 H       1  UNL1        0.0428
     22 H           5.7535   -3.7709    1.0159 H       1  UNL1        0.0428
     23 H           5.5875   -3.2801   -0.6915 H       1  UNL1        0.0428
     24 H           2.6281   -3.3325    1.0315 H       1  UNL1        0.0428
     25 H           2.4861   -2.0138   -0.1544 H       1  UNL1        0.0428
     26 H           2.5649   -1.6549    1.5918 H       1  UNL1        0.0428
     27 H           3.6248    0.9098   -1.2494 H       1  UNL1        0.0912
     28 H           5.2955    0.2968   -1.5291 H       1  UNL1        0.0912
     29 H           3.6936    3.7328   -1.1385 H       1  UNL1        0.1451
     30 H           4.6784    4.3048   -2.4054 H       1  UNL1        0.1451
     31 H           6.3403    0.8700    2.4667 H       1  UNL1        0.0361
     32 H           4.8897    2.9136    2.3909 H       1  UNL1        0.0270
     33 H           5.2953    2.4276    4.0111 H       1  UNL1        0.0270
     34 H           2.6496    1.7642    2.6188 H       1  UNL1        0.0265
     35 H           2.8933    3.0189    3.8180 H       1  UNL1        0.0265
     36 H           1.9601    0.8775    4.7750 H       1  UNL1        0.0265
     37 H           3.4421    1.4321    5.5421 H       1  UNL1        0.0265
     38 H           3.0775   -0.8960    3.6270 H       1  UNL1        0.0265
     39 H           3.6972   -0.9191    5.2681 H       1  UNL1        0.0265
     40 H           5.4877   -1.2286    3.5313 H       1  UNL1        0.0270
     41 H           5.7640    0.1079    4.6232 H       1  UNL1        0.0270
@<TRIPOS>BOND
     1     1     2    1
     2     2     3    1
     3     2     4   am
     4     4     5    2
     5     6     8    1
     6     8     9    1
     7     8    10    1
     8     8    11    1
     9    11    12    1
    10    12    13   am
    11    12    14    2
    12     6    15    1
    13    15    16    1
    14    16    17    1
    15    17    18    1
    16    18    19    1
    17    19    20    1
    18    15    20    1
    19     6     7    1
    20     6     4    1
    21     1    21    1
    22     1    22    1
    23     1    23    1
    24     3    24    1
    25     3    25    1
    26     3    26    1
    27    11    27    1
    28    11    28    1
    29    13    29    1
    30    13    30    1
    31    15    31    1
    32    16    32    1
    33    16    33    1
    34    17    34    1
    35    17    35    1
    36    18    36    1
    37    18    37    1
    38    19    38    1
    39    19    39    1
    40    20    40    1
    41    20    41    1
