@<TRIPOS>MOLECULE
MOL
   22    22     1     0     0
SMALL
No Charge or Current Charge


@<TRIPOS>ATOM
      1 C1           2.6710     1.0640     0.4400 C.ar       1 MOL       0.000000
      2 C2           1.4900     1.8020     0.3850 C.ar       1 MOL       0.000000
      3 C3           1.4700    -0.8710    -0.3850 C.ar       1 MOL       0.000000
      4 C4           0.2730    -0.1460    -0.4430 C.ar       1 MOL       0.000000
      5 C5           2.6490    -0.2720     0.0510 C.ar       1 MOL       0.000000
      6 C6           0.3090     1.2020    -0.0500 C.ar       1 MOL       0.000000
      7 C7          -3.2650    -0.8690     0.0670 C.2        1 MOL       0.000000
      8 C8          -4.0820    -1.1410     1.3220 C.3        1 MOL       0.000000
      9 C9          -0.9920    -0.8370    -0.9090 C.3        1 MOL       0.000000
     10 N1          -1.9170    -1.0890     0.1870 N.am       1 MOL       0.000000
     11 O1          -3.7790    -0.4740    -0.9710 O.2        1 MOL       0.000000
     12 Cl1          4.1270    -1.2200     0.1100 Cl         1 MOL       0.000000
     13 Cl2         -1.1450     2.1840    -0.1140 Cl         1 MOL       0.000000
     14 H1           3.5940     1.5250     0.7770 H          1 MOL       0.000000
     15 H2           1.4840     2.8470     0.6760 H          1 MOL       0.000000
     16 H3           1.4770    -1.9140    -0.6880 H          1 MOL       0.000000
     17 H4          -4.5310    -0.2010     1.6580 H          1 MOL       0.000000
     18 H5          -4.9000    -1.8220     1.0690 H          1 MOL       0.000000
     19 H6          -3.5010    -1.5690     2.1450 H          1 MOL       0.000000
     20 H7          -1.5420    -0.2290    -1.6320 H          1 MOL       0.000000
     21 H8          -0.7200    -1.7760    -1.4090 H          1 MOL       0.000000
     22 H9          -1.5440    -1.4330     1.0600 H          1 MOL       0.000000
@<TRIPOS>BOND
     1     1     2 ar  
     2     1     5 ar  
     3     1    14 1   
     4     2     6 ar  
     5     2    15 1   
     6     3     4 ar  
     7     3     5 ar  
     8     3    16 1   
     9     4     6 ar  
    10     4     9 1   
    11     5    12 1   
    12     6    13 1   
    13     7     8 1   
    14     7    10 am  
    15     7    11 2   
    16     8    17 1   
    17     8    18 1   
    18     8    19 1   
    19     9    10 1   
    20     9    20 1   
    21     9    21 1   
    22    10    22 1   
@<TRIPOS>SUBSTRUCTURE
     1 MOL         1 TEMP              0 ****  ****    0 ROOT
