@<TRIPOS>MOLECULE
MOL
   22    22     1     0     0
SMALL
No Charge or Current Charge


@<TRIPOS>ATOM
 1  C1  2.671000  1.064000  0.440000  C.ar  1  MOL  -0.046950 
 2  C2  1.490000  1.802000  0.385000  C.ar  1  MOL  -0.142516 
 3  C3  1.470000  -0.871000  -0.385000  C.ar  1  MOL  -0.083280 
 4  C4  0.273000  -0.146000  -0.443000  C.ar  1  MOL  0.188104 
 5  C5  2.649000  -0.272000  0.051000  C.ar  1  MOL  -0.063734 
 6  C6  0.309000  1.202000  -0.050000  C.ar  1  MOL  -0.063443 
 7  C7  -3.265000  -0.869000  0.067000  C.2  1  MOL  0.510929 
 8  C8  -4.082000  -1.141000  1.322000  C.3  1  MOL  -0.313908 
 9  C9  -0.992000  -0.837000  -0.909000  C.3  1  MOL  -0.195049 
 10  N1  -1.917000  -1.089000  0.187000  N.am  1  MOL  -0.353167 
 11  O1  -3.779000  -0.474000  -0.971000  O.2  1  MOL  -0.514977 
 12  Cl1  4.127000  -1.220000  0.110000  Cl  1  MOL  -0.098370 
 13  Cl2  -1.145000  2.184000  -0.114000  Cl  1  MOL  -0.066196 
 14  H1  3.594000  1.525000  0.777000  H  1  MOL  0.143635 
 15  H2  1.484000  2.847000  0.676000  H  1  MOL  0.152804 
 16  H3  1.477000  -1.914000  -0.688000  H  1  MOL  0.121320 
 17  H4  -4.531000  -0.201000  1.658000  H  1  MOL  0.111818 
 18  H5  -4.900000  -1.822000  1.069000  H  1  MOL  0.116842 
 19  H6  -3.501000  -1.569000  2.145000  H  1  MOL  0.089295 
 20  H7  -1.542000  -0.229000  -1.632000  H  1  MOL  0.124946 
 21  H8  -0.720000  -1.776000  -1.409000  H  1  MOL  0.124946 
 22  H9  -1.544000  -1.433000  1.060000  H  1  MOL  0.256949 
@<TRIPOS>BOND
     1     1     2 ar  
     2     1     5 ar  
     3     1    14 1   
     4     2     6 ar  
     5     2    15 1   
     6     3     4 ar  
     7     3     5 ar  
     8     3    16 1   
     9     4     6 ar  
    10     4     9 1   
    11     5    12 1   
    12     6    13 1   
    13     7     8 1   
    14     7    10 am  
    15     7    11 2   
    16     8    17 1   
    17     8    18 1   
    18     8    19 1   
    19     9    10 1   
    20     9    20 1   
    21     9    21 1   
    22    10    22 1   
@<TRIPOS>SUBSTRUCTURE
     1 MOL         1 TEMP              0 ****  ****    0 ROOT
