@<TRIPOS>MOLECULE
MOL
   25    25     1     0     0
SMALL
No Charge or Current Charge


@<TRIPOS>ATOM
      1 C1          -2.1610    -1.7600     0.2550 C.ar       1 MOL       0.000000
      2 C2          -2.9050    -0.6990     0.7770 C.ar       1 MOL       0.000000
      3 C3          -1.0000    -1.4800    -0.4560 C.ar       1 MOL       0.000000
      4 C4          -2.4570     0.5890     0.5700 C.ar       1 MOL       0.000000
      5 C5          -0.5730    -0.1670    -0.6500 C.ar       1 MOL       0.000000
      6 C6           2.2940    -0.0030     0.3700 C.2        1 MOL       0.000000
      7 C7           3.6040    -0.5400     0.8960 C.3        1 MOL       0.000000
      8 C8          -0.8820     2.2630    -0.2470 C.3        1 MOL       0.000000
      9 C9           0.6900     0.1010    -1.4580 C.3        1 MOL       0.000000
     10 N1          -1.3200     0.8470    -0.1290 N.pl3      1 MOL       0.000000
     11 N2           1.8540    -0.5050    -0.8340 N.am       1 MOL       0.000000
     12 O1           1.6200     0.8360     0.9600 O.2        1 MOL       0.000000
     13 H1          -2.4850    -2.7860     0.3970 H          1 MOL       0.000000
     14 H2          -3.8180    -0.8610     1.3390 H          1 MOL       0.000000
     15 H3          -0.3960    -2.2800    -0.8700 H          1 MOL       0.000000
     16 H4          -2.9830     1.4530     0.9550 H          1 MOL       0.000000
     17 H5           4.3610     0.2490     0.8300 H          1 MOL       0.000000
     18 H6           3.4850    -0.7880     1.9540 H          1 MOL       0.000000
     19 H7           3.9620    -1.4200     0.3550 H          1 MOL       0.000000
     20 H8           0.1200     2.3360     0.1790 H          1 MOL       0.000000
     21 H9          -0.8950     2.5720    -1.2940 H          1 MOL       0.000000
     22 H10         -1.5770     2.8840     0.3160 H          1 MOL       0.000000
     23 H11          0.5610    -0.3560    -2.4440 H          1 MOL       0.000000
     24 H12          0.8460     1.1710    -1.6100 H          1 MOL       0.000000
     25 H13          2.4600    -1.0870    -1.3970 H          1 MOL       0.000000
@<TRIPOS>BOND
     1     1     2 ar  
     2     1     3 ar  
     3     1    13 1   
     4     2     4 ar  
     5     2    14 1   
     6     3     5 ar  
     7     3    15 1   
     8     4    10 1   
     9     4    16 1   
    10     5     9 1   
    11     5    10 2   
    12     6     7 1   
    13     6    11 am  
    14     6    12 2   
    15     7    17 1   
    16     7    18 1   
    17     7    19 1   
    18     8    10 1   
    19     8    20 1   
    20     8    21 1   
    21     8    22 1   
    22     9    11 1   
    23     9    23 1   
    24     9    24 1   
    25    11    25 1   
@<TRIPOS>SUBSTRUCTURE
     1 MOL         1 TEMP              0 ****  ****    0 ROOT
