@<TRIPOS>MOLECULE
MOL
   19    19     1     0     0
SMALL
No Charge or Current Charge


@<TRIPOS>ATOM
      1 C1           0.2270     1.0600    -0.7910 C.2        1 MOL       0.000000
      2 C2           1.5500     1.3810    -0.3590 C.2        1 MOL       0.000000
      3 C3          -0.0730    -0.2740    -0.7110 C.2        1 MOL       0.000000
      4 C4           2.2370     0.2740     0.0520 C.2        1 MOL       0.000000
      5 C5          -3.1620     0.2110     0.2270 C.2        1 MOL       0.000000
      6 C6          -4.0190     0.2150     1.4840 C.3        1 MOL       0.000000
      7 C7          -1.3850    -0.9460    -1.0250 C.3        1 MOL       0.000000
      8 N1          -2.3620    -0.8910     0.0610 N.am       1 MOL       0.000000
      9 O1          -3.1930     1.1260    -0.5870 O.2        1 MOL       0.000000
     10 S1           1.2890    -1.1820    -0.0840 S.3        1 MOL       0.000000
     11 Cl1          3.8690     0.2160     0.6350 Cl         1 MOL       0.000000
     12 H1          -0.4940     1.7920    -1.1380 H          1 MOL       0.000000
     13 H2           1.9720     2.3790    -0.3570 H          1 MOL       0.000000
     14 H3          -3.6390     0.9800     2.1700 H          1 MOL       0.000000
     15 H4          -5.0390     0.4970     1.2110 H          1 MOL       0.000000
     16 H5          -4.0380    -0.7470     2.0050 H          1 MOL       0.000000
     17 H6          -1.8450    -0.4390    -1.8770 H          1 MOL       0.000000
     18 H7          -1.2350    -1.9960    -1.2970 H          1 MOL       0.000000
     19 H8          -2.2460    -1.5270     0.8380 H          1 MOL       0.000000
@<TRIPOS>BOND
     1     1     2 1   
     2     1     3 2   
     3     1    12 1   
     4     2     4 2   
     5     2    13 1   
     6     3     7 1   
     7     3    10 1   
     8     4    10 1   
     9     4    11 1   
    10     5     6 1   
    11     5     8 am  
    12     5     9 2   
    13     6    14 1   
    14     6    15 1   
    15     6    16 1   
    16     7     8 1   
    17     7    17 1   
    18     7    18 1   
    19     8    19 1   
@<TRIPOS>SUBSTRUCTURE
     1 MOL         1 TEMP              0 ****  ****    0 ROOT
