@<TRIPOS>MOLECULE
MOL
   23    23     1     0     0
SMALL
No Charge or Current Charge


@<TRIPOS>ATOM
      1 C1          -0.5380     1.1260    -0.2990 C.ar       1 MOL       0.000000
      2 C2          -1.6720    -0.9590     0.0440 C.ar       1 MOL       0.000000
      3 C3          -1.7800     1.7440    -0.2110 C.ar       1 MOL       0.000000
      4 C4          -0.4840    -0.2720    -0.1710 C.ar       1 MOL       0.000000
      5 C5          -2.8820    -0.2360     0.1110 C.ar       1 MOL       0.000000
      6 C6           3.1150    -0.1020    -0.0400 C.2        1 MOL       0.000000
      7 C7           4.1140     0.5140     0.9300 C.3        1 MOL       0.000000
      8 C8           0.8280    -1.0230    -0.2830 C.3        1 MOL       0.000000
      9 N1          -2.9370     1.0970    -0.0160 N.ar       1 MOL       0.000000
     10 N2          -4.0820    -0.8760     0.3720 N.3        1 MOL       0.000000
     11 N3           1.8970    -0.4230     0.5000 N.am       1 MOL       0.000000
     12 O1           3.3910    -0.2970    -1.2160 O.2        1 MOL       0.000000
     13 H1           0.3620     1.7070    -0.4660 H          1 MOL       0.000000
     14 H2          -1.6730    -2.0390     0.1680 H          1 MOL       0.000000
     15 H3          -1.8600     2.8260    -0.3100 H          1 MOL       0.000000
     16 H4           4.9840    -0.1460     1.0050 H          1 MOL       0.000000
     17 H5           4.4610     1.4660     0.5170 H          1 MOL       0.000000
     18 H6           3.7110     0.6850     1.9330 H          1 MOL       0.000000
     19 H7           0.6800    -2.0710     0.0090 H          1 MOL       0.000000
     20 H8           1.1900    -1.0210    -1.3170 H          1 MOL       0.000000
     21 H9          -4.1640    -1.8360     0.0650 H          1 MOL       0.000000
     22 H10         -4.8940    -0.3070     0.1670 H          1 MOL       0.000000
     23 H11          1.7240    -0.2330     1.4770 H          1 MOL       0.000000
@<TRIPOS>BOND
     1     1     3 ar  
     2     1     4 ar  
     3     1    13 1   
     4     2     4 ar  
     5     2     5 ar  
     6     2    14 1   
     7     3     9 ar  
     8     3    15 1   
     9     4     8 1   
    10     5     9 ar  
    11     5    10 1   
    12     6     7 1   
    13     6    11 am  
    14     6    12 2   
    15     7    16 1   
    16     7    17 1   
    17     7    18 1   
    18     8    11 1   
    19     8    19 1   
    20     8    20 1   
    21    10    21 1   
    22    10    22 1   
    23    11    23 1   
@<TRIPOS>SUBSTRUCTURE
     1 MOL         1 TEMP              0 ****  ****    0 ROOT
