@<TRIPOS>MOLECULE
MOL
   23    23     1     0     0
SMALL
No Charge or Current Charge


@<TRIPOS>ATOM
 1  C1  -0.538000  1.126000  -0.299000  C.ar  1  MOL  -0.434054 
 2  C2  -1.672000  -0.959000  0.044000  C.ar  1  MOL  -0.513952 
 3  C3  -1.780000  1.744000  -0.211000  C.ar  1  MOL  0.229751 
 4  C4  -0.484000  -0.272000  -0.171000  C.ar  1  MOL  0.366443 
 5  C5  -2.882000  -0.236000  0.111000  C.ar  1  MOL  0.713800 
 6  C6  3.115000  -0.102000  -0.040000  C.2  1  MOL  0.510929 
 7  C7  4.114000  0.514000  0.930000  C.3  1  MOL  -0.313908 
 8  C8  0.828000  -1.023000  -0.283000  C.3  1  MOL  -0.204791 
 9  N1  -2.937000  1.097000  -0.016000  N.ar  1  MOL  -0.593193 
 10  N2  -4.082000  -0.876000  0.372000  N.3  1  MOL  -0.914494 
 11  N3  1.897000  -0.423000  0.500000  N.am  1  MOL  -0.353167 
 12  O1  3.391000  -0.297000  -1.216000  O.2  1  MOL  -0.514977 
 13  H1  0.362000  1.707000  -0.466000  H  1  MOL  0.173648 
 14  H2  -1.673000  -2.039000  0.168000  H  1  MOL  0.175073 
 15  H3  -1.860000  2.826000  -0.310000  H  1  MOL  0.094383 
 16  H4  4.984000  -0.146000  1.005000  H  1  MOL  0.111818 
 17  H5  4.461000  1.466000  0.517000  H  1  MOL  0.116842 
 18  H6  3.711000  0.685000  1.933000  H  1  MOL  0.089295 
 19  H7  0.680000  -2.071000  0.009000  H  1  MOL  0.125582 
 20  H8  1.190000  -1.021000  -1.317000  H  1  MOL  0.125582 
 21  H9  -4.164000  -1.836000  0.065000  H  1  MOL  0.376220 
 22  H10  -4.894000  -0.307000  0.167000  H  1  MOL  0.376220 
 23  H11  1.724000  -0.233000  1.477000  H  1  MOL  0.256949 
@<TRIPOS>BOND
     1     1     3 ar  
     2     1     4 ar  
     3     1    13 1   
     4     2     4 ar  
     5     2     5 ar  
     6     2    14 1   
     7     3     9 ar  
     8     3    15 1   
     9     4     8 1   
    10     5     9 ar  
    11     5    10 1   
    12     6     7 1   
    13     6    11 am  
    14     6    12 2   
    15     7    16 1   
    16     7    17 1   
    17     7    18 1   
    18     8    11 1   
    19     8    19 1   
    20     8    20 1   
    21    10    21 1   
    22    10    22 1   
    23    11    23 1   
@<TRIPOS>SUBSTRUCTURE
     1 MOL         1 TEMP              0 ****  ****    0 ROOT
